
OS:Version,
  {3d310d40-2862-4bd3-bb67-d5c0c71867ae}, !- Handle
  3.8.0;                                  !- Version Identifier

OS:Schedule:Ruleset,
  {10b23992-a8d6-49de-b368-7f4e91c85f55}, !- Handle
  heating schedule,                       !- Name
  {bd370fbb-8288-4e8d-ac2c-02528407d1ca}, !- Schedule Type Limits Name
  {8bb2b399-c82f-4e51-b561-77b214cc239b}, !- Default Day Schedule Name
  {1339a225-fc1f-4b17-994d-8e4612af4d60}, !- Summer Design Day Schedule Name
  {8174c502-8567-48c5-bc31-e64547b97218}, !- Winter Design Day Schedule Name
  {46beb565-c727-4364-8095-50cba8fb854f}, !- Holiday Schedule Name
  {3aa54c7a-0d04-4e62-be31-1e518b4e066d}, !- Custom Day 1 Schedule Name
  {79ac9ceb-c1d7-486d-857b-e93ef1b67458}; !- Custom Day 2 Schedule Name

OS:Schedule:Day,
  {8bb2b399-c82f-4e51-b561-77b214cc239b}, !- Handle
  Schedule Day 1,                         !- Name
  {bd370fbb-8288-4e8d-ac2c-02528407d1ca}, !- Schedule Type Limits Name
  ,                                       !- Interpolate to Timestep
  24,                                     !- Hour 1
  0,                                      !- Minute 1
  0;                                      !- Value Until Time 1

OS:Schedule:Day,
  {3d8c891a-b101-4242-b4fc-f32b13fa3c88}, !- Handle
  off day (weekend),                      !- Name
  ,                                       !- Schedule Type Limits Name
  No,                                     !- Interpolate to Timestep
  24,                                     !- Hour 1
  0,                                      !- Minute 1
  5;                                      !- Value Until Time 1

OS:Schedule:Rule,
  {5f92545c-d988-41da-b8f9-595f8b4b193b}, !- Handle
  heating schedule_Week 1,                !- Name
  {10b23992-a8d6-49de-b368-7f4e91c85f55}, !- Schedule Ruleset Name
  1,                                      !- Rule Order
  {c75a9a73-0460-405e-b626-2fda615c04e3}, !- Day Schedule Name
  Yes,                                    !- Apply Sunday
  ,                                       !- Apply Monday
  ,                                       !- Apply Tuesday
  ,                                       !- Apply Wednesday
  ,                                       !- Apply Thursday
  ,                                       !- Apply Friday
  Yes,                                    !- Apply Saturday
  DateRange,                              !- Date Specification Type
  1,                                      !- Start Month
  1,                                      !- Start Day
  12,                                     !- End Month
  31;                                     !- End Day

OS:Schedule:Day,
  {c75a9a73-0460-405e-b626-2fda615c04e3}, !- Handle
  off day (weekend) 1,                    !- Name
  {bd370fbb-8288-4e8d-ac2c-02528407d1ca}, !- Schedule Type Limits Name
  No,                                     !- Interpolate to Timestep
  24,                                     !- Hour 1
  0,                                      !- Minute 1
  5;                                      !- Value Until Time 1

OS:Schedule:Day,
  {86576188-33b9-4931-ab3b-7b0a3948091f}, !- Handle
  heating day,                            !- Name
  ,                                       !- Schedule Type Limits Name
  No,                                     !- Interpolate to Timestep
  7,                                      !- Hour 1
  0,                                      !- Minute 1
  5,                                      !- Value Until Time 1
  17,                                     !- Hour 2
  0,                                      !- Minute 2
  20,                                     !- Value Until Time 2
  24,                                     !- Hour 3
  0,                                      !- Minute 3
  5;                                      !- Value Until Time 3

OS:Schedule:Rule,
  {b71829cb-eefa-4f46-9027-d175f13daa43}, !- Handle
  heating schedule_Week 2,                !- Name
  {10b23992-a8d6-49de-b368-7f4e91c85f55}, !- Schedule Ruleset Name
  0,                                      !- Rule Order
  {3074160e-874a-4b7d-a9d1-6e9f16605806}, !- Day Schedule Name
  ,                                       !- Apply Sunday
  Yes,                                    !- Apply Monday
  Yes,                                    !- Apply Tuesday
  Yes,                                    !- Apply Wednesday
  Yes,                                    !- Apply Thursday
  Yes,                                    !- Apply Friday
  ,                                       !- Apply Saturday
  DateRange,                              !- Date Specification Type
  1,                                      !- Start Month
  1,                                      !- Start Day
  12,                                     !- End Month
  31;                                     !- End Day

OS:Schedule:Day,
  {3074160e-874a-4b7d-a9d1-6e9f16605806}, !- Handle
  heating day 1,                          !- Name
  {bd370fbb-8288-4e8d-ac2c-02528407d1ca}, !- Schedule Type Limits Name
  No,                                     !- Interpolate to Timestep
  7,                                      !- Hour 1
  0,                                      !- Minute 1
  5,                                      !- Value Until Time 1
  17,                                     !- Hour 2
  0,                                      !- Minute 2
  20,                                     !- Value Until Time 2
  24,                                     !- Hour 3
  0,                                      !- Minute 3
  5;                                      !- Value Until Time 3

OS:Schedule:Day,
  {46beb565-c727-4364-8095-50cba8fb854f}, !- Handle
  heating day 2,                          !- Name
  {bd370fbb-8288-4e8d-ac2c-02528407d1ca}, !- Schedule Type Limits Name
  No,                                     !- Interpolate to Timestep
  7,                                      !- Hour 1
  0,                                      !- Minute 1
  5,                                      !- Value Until Time 1
  17,                                     !- Hour 2
  0,                                      !- Minute 2
  20,                                     !- Value Until Time 2
  24,                                     !- Hour 3
  0,                                      !- Minute 3
  5;                                      !- Value Until Time 3

OS:Schedule:Day,
  {1339a225-fc1f-4b17-994d-8e4612af4d60}, !- Handle
  heating day 3,                          !- Name
  {bd370fbb-8288-4e8d-ac2c-02528407d1ca}, !- Schedule Type Limits Name
  No,                                     !- Interpolate to Timestep
  7,                                      !- Hour 1
  0,                                      !- Minute 1
  5,                                      !- Value Until Time 1
  17,                                     !- Hour 2
  0,                                      !- Minute 2
  20,                                     !- Value Until Time 2
  24,                                     !- Hour 3
  0,                                      !- Minute 3
  5;                                      !- Value Until Time 3

OS:Schedule:Day,
  {8174c502-8567-48c5-bc31-e64547b97218}, !- Handle
  heating day 4,                          !- Name
  {bd370fbb-8288-4e8d-ac2c-02528407d1ca}, !- Schedule Type Limits Name
  No,                                     !- Interpolate to Timestep
  7,                                      !- Hour 1
  0,                                      !- Minute 1
  5,                                      !- Value Until Time 1
  17,                                     !- Hour 2
  0,                                      !- Minute 2
  20,                                     !- Value Until Time 2
  24,                                     !- Hour 3
  0,                                      !- Minute 3
  5;                                      !- Value Until Time 3

OS:Schedule:Day,
  {3aa54c7a-0d04-4e62-be31-1e518b4e066d}, !- Handle
  heating day 5,                          !- Name
  {bd370fbb-8288-4e8d-ac2c-02528407d1ca}, !- Schedule Type Limits Name
  No,                                     !- Interpolate to Timestep
  7,                                      !- Hour 1
  0,                                      !- Minute 1
  5,                                      !- Value Until Time 1
  17,                                     !- Hour 2
  0,                                      !- Minute 2
  20,                                     !- Value Until Time 2
  24,                                     !- Hour 3
  0,                                      !- Minute 3
  5;                                      !- Value Until Time 3

OS:Schedule:Day,
  {79ac9ceb-c1d7-486d-857b-e93ef1b67458}, !- Handle
  heating day 6,                          !- Name
  {bd370fbb-8288-4e8d-ac2c-02528407d1ca}, !- Schedule Type Limits Name
  No,                                     !- Interpolate to Timestep
  7,                                      !- Hour 1
  0,                                      !- Minute 1
  5,                                      !- Value Until Time 1
  17,                                     !- Hour 2
  0,                                      !- Minute 2
  20,                                     !- Value Until Time 2
  24,                                     !- Hour 3
  0,                                      !- Minute 3
  5;                                      !- Value Until Time 3

OS:Schedule:Week,
  {c36430d5-8dcc-49e0-ad25-1df09c694bae}, !- Handle
  heating schedule_Week 1,                !- Name
  ,                                       !- Schedule Rendering Name
  {3d8c891a-b101-4242-b4fc-f32b13fa3c88}, !- Sunday Schedule:Day Name
  {86576188-33b9-4931-ab3b-7b0a3948091f}, !- Monday Schedule:Day Name
  {86576188-33b9-4931-ab3b-7b0a3948091f}, !- Tuesday Schedule:Day Name
  {86576188-33b9-4931-ab3b-7b0a3948091f}, !- Wednesday Schedule:Day Name
  {86576188-33b9-4931-ab3b-7b0a3948091f}, !- Thursday Schedule:Day Name
  {86576188-33b9-4931-ab3b-7b0a3948091f}, !- Friday Schedule:Day Name
  {3d8c891a-b101-4242-b4fc-f32b13fa3c88}, !- Saturday Schedule:Day Name
  {86576188-33b9-4931-ab3b-7b0a3948091f}, !- Holiday Schedule:Day Name
  {86576188-33b9-4931-ab3b-7b0a3948091f}, !- SummerDesignDay Schedule:Day Name
  {86576188-33b9-4931-ab3b-7b0a3948091f}, !- WinterDesignDay Schedule:Day Name
  {86576188-33b9-4931-ab3b-7b0a3948091f}, !- CustomDay1 Schedule:Day Name
  {86576188-33b9-4931-ab3b-7b0a3948091f}; !- CustomDay2 Schedule:Day Name

OS:Schedule:Constant,
  {4ea1faf2-b9b0-4a2f-ae5f-ecfa6d568d78}, !- Handle
  cooling schedule,                       !- Name
  ,                                       !- Schedule Type Limits Name
  50;                                     !- Value

OS:Schedule:Constant,
  {572e3da0-5398-4036-bb27-b6885692bb61}, !- Handle
  Always On,                              !- Name
  ,                                       !- Schedule Type Limits Name
  1;                                      !- Value

OS:WindowMaterial:Glazing,
  {ad773d35-e7a4-485f-adec-8e6f1b46a34b}, !- Handle
  thick_glass_for_wall,                   !- Name
  SpectralAverage,                        !- Optical Data Type
  ,                                       !- Window Glass Spectral Data Set Name
  0.02,                                   !- Thickness {m}
  0.75,                                   !- Solar Transmittance at Normal Incidence
  0.075,                                  !- Front Side Solar Reflectance at Normal Incidence
  0.075,                                  !- Back Side Solar Reflectance at Normal Incidence
  0.8,                                    !- Visible Transmittance at Normal Incidence
  0.075,                                  !- Front Side Visible Reflectance at Normal Incidence
  0.075,                                  !- Back Side Visible Reflectance at Normal Incidence
  0,                                      !- Infrared Transmittance at Normal Incidence
  0.84,                                   !- Front Side Infrared Hemispherical Emissivity
  0.84,                                   !- Back Side Infrared Hemispherical Emissivity
  1,                                      !- Conductivity {W/m-K}
  1,                                      !- Dirt Correction Factor for Solar and Visible Transmittance
  No;                                     !- Solar Diffusing

OS:Material,
  {aec22d8d-1acf-49ca-8b60-e5b47efab0db}, !- Handle
  GlassWool_Old,                          !- Name
  Rough,                                  !- Roughness
  0.1,                                    !- Thickness {m}
  0.05,                                   !- Conductivity {W/m-K}
  18,                                     !- Density {kg/m3}
  840,                                    !- Specific Heat {J/kg-K}
  0.9,                                    !- Thermal Absorptance
  0.7,                                    !- Solar Absorptance
  0.7;                                    !- Visible Absorptance

OS:Material,
  {b2a3050e-151e-4490-80ab-1eabe9fb1aee}, !- Handle
  Concrete_200mm,                         !- Name
  MediumRough,                            !- Roughness
  0.2,                                    !- Thickness {m}
  1.75,                                   !- Conductivity {W/m-K}
  2300,                                   !- Density {kg/m3}
  900,                                    !- Specific Heat {J/kg-K}
  0.9,                                    !- Thermal Absorptance
  0.7,                                    !- Solar Absorptance
  0.7;                                    !- Visible Absorptance

OS:Material,
  {80b121d4-ddbe-4e6f-beaf-4da33d54e4ef}, !- Handle
  AirCavity_5cm,                          !- Name
  MediumRough,                            !- Roughness
  0.05,                                   !- Thickness {m}
  0.025,                                  !- Conductivity {W/m-K}
  1.2,                                    !- Density {kg/m3}
  1005,                                   !- Specific Heat {J/kg-K}
  0.9,                                    !- Thermal Absorptance
  0.7,                                    !- Solar Absorptance
  0.7;                                    !- Visible Absorptance

OS:Material,
  {17e8bedf-af4c-44c4-96ea-c7453fb90995}, !- Handle
  Generic LW Concrete,                    !- Name
  MediumRough,                            !- Roughness
  0.1,                                    !- Thickness {m}
  0.53,                                   !- Conductivity {W/m-K}
  1280,                                   !- Density {kg/m3}
  840,                                    !- Specific Heat {J/kg-K}
  0.9,                                    !- Thermal Absorptance
  0.8,                                    !- Solar Absorptance
  0.8;                                    !- Visible Absorptance

OS:Material,
  {ebfd3e10-dcc2-418e-b3c5-4082885a31b0}, !- Handle
  OSB_20mm,                               !- Name
  MediumRough,                            !- Roughness
  0.02,                                   !- Thickness {m}
  0.13,                                   !- Conductivity {W/m-K}
  600,                                    !- Density {kg/m3}
  1600,                                   !- Specific Heat {J/kg-K}
  0.9,                                    !- Thermal Absorptance
  0.7,                                    !- Solar Absorptance
  0.7;                                    !- Visible Absorptance

OS:WindowMaterial:Gas,
  {b1c22e0d-aafb-4a76-82f4-7ba1962b0dd3}, !- Handle
  air_gap_16mm,                           !- Name
  Air,                                    !- Gas Type
  0.016;                                  !- Thickness {m}

OS:Material,
  {dda1d5f8-ccfe-4b0e-ac72-624124dc3184}, !- Handle
  Generic Acoustic Tile,                  !- Name
  MediumSmooth,                           !- Roughness
  0.02,                                   !- Thickness {m}
  0.06,                                   !- Conductivity {W/m-K}
  368,                                    !- Density {kg/m3}
  590,                                    !- Specific Heat {J/kg-K}
  0.9,                                    !- Thermal Absorptance
  0.2,                                    !- Solar Absorptance
  0.2;                                    !- Visible Absorptance

OS:WindowMaterial:Glazing,
  {b64e6bf6-7e65-4a80-820d-c48c161786bc}, !- Handle
  clear_glass,                            !- Name
  SpectralAverage,                        !- Optical Data Type
  ,                                       !- Window Glass Spectral Data Set Name
  0.004,                                  !- Thickness {m}
  0.75,                                   !- Solar Transmittance at Normal Incidence
  0.075,                                  !- Front Side Solar Reflectance at Normal Incidence
  0.075,                                  !- Back Side Solar Reflectance at Normal Incidence
  0.8,                                    !- Visible Transmittance at Normal Incidence
  0.075,                                  !- Front Side Visible Reflectance at Normal Incidence
  0.075,                                  !- Back Side Visible Reflectance at Normal Incidence
  0,                                      !- Infrared Transmittance at Normal Incidence
  0.84,                                   !- Front Side Infrared Hemispherical Emissivity
  0.84,                                   !- Back Side Infrared Hemispherical Emissivity
  1,                                      !- Conductivity {W/m-K}
  1,                                      !- Dirt Correction Factor for Solar and Visible Transmittance
  No;                                     !- Solar Diffusing

OS:Material,
  {f51ad255-c38f-4f5e-a425-f3bd98233552}, !- Handle
  Generic Wall Air Gap,                   !- Name
  Smooth,                                 !- Roughness
  0.1,                                    !- Thickness {m}
  0.667,                                  !- Conductivity {W/m-K}
  1.28,                                   !- Density {kg/m3}
  1000,                                   !- Specific Heat {J/kg-K}
  0.9,                                    !- Thermal Absorptance
  0.7,                                    !- Solar Absorptance
  0.7;                                    !- Visible Absorptance

OS:WindowMaterial:Gas,
  {3cd1f6f0-4f10-4d5b-b211-63856c4414dc}, !- Handle
  Generic Window Air Gap,                 !- Name
  Air,                                    !- Gas Type
  0.0127;                                 !- Thickness {m}

OS:Material,
  {0546e915-e799-47c3-9921-7059ee3d3bfe}, !- Handle
  Generic HW Concrete,                    !- Name
  MediumRough,                            !- Roughness
  0.2,                                    !- Thickness {m}
  1.95,                                   !- Conductivity {W/m-K}
  2240,                                   !- Density {kg/m3}
  900,                                    !- Specific Heat {J/kg-K}
  0.9,                                    !- Thermal Absorptance
  0.8,                                    !- Solar Absorptance
  0.8;                                    !- Visible Absorptance

OS:Material,
  {de413d2b-1b49-4cf2-bd57-aee95e2e1cb5}, !- Handle
  Plaster_2cm,                            !- Name
  MediumRough,                            !- Roughness
  0.02,                                   !- Thickness {m}
  0.7,                                    !- Conductivity {W/m-K}
  900,                                    !- Density {kg/m3}
  1000,                                   !- Specific Heat {J/kg-K}
  0.9,                                    !- Thermal Absorptance
  0.7,                                    !- Solar Absorptance
  0.7;                                    !- Visible Absorptance

OS:WindowMaterial:Glazing,
  {7aa8ae3f-647e-4e76-9474-e18830f27e9e}, !- Handle
  Generic Low-e Glass,                    !- Name
  SpectralAverage,                        !- Optical Data Type
  ,                                       !- Window Glass Spectral Data Set Name
  0.006,                                  !- Thickness {m}
  0.45,                                   !- Solar Transmittance at Normal Incidence
  0.36,                                   !- Front Side Solar Reflectance at Normal Incidence
  0.36,                                   !- Back Side Solar Reflectance at Normal Incidence
  0.71,                                   !- Visible Transmittance at Normal Incidence
  0.21,                                   !- Front Side Visible Reflectance at Normal Incidence
  0.21,                                   !- Back Side Visible Reflectance at Normal Incidence
  0,                                      !- Infrared Transmittance at Normal Incidence
  0.84,                                   !- Front Side Infrared Hemispherical Emissivity
  0.047,                                  !- Back Side Infrared Hemispherical Emissivity
  1,                                      !- Conductivity {W/m-K}
  1,                                      !- Dirt Correction Factor for Solar and Visible Transmittance
  No;                                     !- Solar Diffusing

OS:Material,
  {c789c18a-bfd4-44e1-958b-3ece385eed7d}, !- Handle
  Generic Roof Membrane,                  !- Name
  MediumRough,                            !- Roughness
  0.01,                                   !- Thickness {m}
  0.16,                                   !- Conductivity {W/m-K}
  1120,                                   !- Density {kg/m3}
  1460,                                   !- Specific Heat {J/kg-K}
  0.9,                                    !- Thermal Absorptance
  0.65,                                   !- Solar Absorptance
  0.65;                                   !- Visible Absorptance

OS:Material,
  {56e611a0-7910-42d2-ab0b-c8e680aad9ff}, !- Handle
  Generic Ceiling Air Gap,                !- Name
  Smooth,                                 !- Roughness
  0.1,                                    !- Thickness {m}
  0.556,                                  !- Conductivity {W/m-K}
  1.28,                                   !- Density {kg/m3}
  1000,                                   !- Specific Heat {J/kg-K}
  0.9,                                    !- Thermal Absorptance
  0.7,                                    !- Solar Absorptance
  0.7;                                    !- Visible Absorptance

OS:Material,
  {8e52120a-06ee-49e3-b46f-f5f71aaf8ae2}, !- Handle
  Generic Brick,                          !- Name
  MediumRough,                            !- Roughness
  0.1,                                    !- Thickness {m}
  0.9,                                    !- Conductivity {W/m-K}
  1920,                                   !- Density {kg/m3}
  790,                                    !- Specific Heat {J/kg-K}
  0.9,                                    !- Thermal Absorptance
  0.65,                                   !- Solar Absorptance
  0.65;                                   !- Visible Absorptance

OS:Material,
  {6dfc7ce6-c9e2-4283-b3d3-3ca7a3eaab83}, !- Handle
  Generic 25mm Insulation,                !- Name
  MediumRough,                            !- Roughness
  0.025,                                  !- Thickness {m}
  0.03,                                   !- Conductivity {W/m-K}
  43,                                     !- Density {kg/m3}
  1210,                                   !- Specific Heat {J/kg-K}
  0.9,                                    !- Thermal Absorptance
  0.7,                                    !- Solar Absorptance
  0.7;                                    !- Visible Absorptance

OS:Material,
  {89010d5d-cf4b-48c1-8b9f-bfe5c536c072}, !- Handle
  Generic Painted Metal,                  !- Name
  Smooth,                                 !- Roughness
  0.0015,                                 !- Thickness {m}
  45,                                     !- Conductivity {W/m-K}
  7690,                                   !- Density {kg/m3}
  410,                                    !- Specific Heat {J/kg-K}
  0.9,                                    !- Thermal Absorptance
  0.5,                                    !- Solar Absorptance
  0.5;                                    !- Visible Absorptance

OS:Material,
  {dff1f323-b42e-48b7-b1fb-da4d13a9ae50}, !- Handle
  Generic 25mm Wood,                      !- Name
  MediumSmooth,                           !- Roughness
  0.0254,                                 !- Thickness {m}
  0.15,                                   !- Conductivity {W/m-K}
  608,                                    !- Density {kg/m3}
  1630,                                   !- Specific Heat {J/kg-K}
  0.9,                                    !- Thermal Absorptance
  0.5,                                    !- Solar Absorptance
  0.5;                                    !- Visible Absorptance

OS:Material,
  {8a1ad0f4-5e26-436d-bcfa-0c0f762e6c46}, !- Handle
  Generic 50mm Insulation,                !- Name
  MediumRough,                            !- Roughness
  0.05,                                   !- Thickness {m}
  0.03,                                   !- Conductivity {W/m-K}
  43,                                     !- Density {kg/m3}
  1210,                                   !- Specific Heat {J/kg-K}
  0.9,                                    !- Thermal Absorptance
  0.7,                                    !- Solar Absorptance
  0.7;                                    !- Visible Absorptance

OS:Material,
  {c46e8df7-acdc-4a21-b811-8455b1779025}, !- Handle
  Generic Gypsum Board,                   !- Name
  MediumSmooth,                           !- Roughness
  0.0127,                                 !- Thickness {m}
  0.16,                                   !- Conductivity {W/m-K}
  800,                                    !- Density {kg/m3}
  1090,                                   !- Specific Heat {J/kg-K}
  0.9,                                    !- Thermal Absorptance
  0.5,                                    !- Solar Absorptance
  0.5;                                    !- Visible Absorptance

OS:WindowMaterial:Glazing,
  {8b6c106d-8ab8-492b-bea5-cd5033c22a37}, !- Handle
  Generic Clear Glass,                    !- Name
  SpectralAverage,                        !- Optical Data Type
  ,                                       !- Window Glass Spectral Data Set Name
  0.006,                                  !- Thickness {m}
  0.77,                                   !- Solar Transmittance at Normal Incidence
  0.07,                                   !- Front Side Solar Reflectance at Normal Incidence
  0.07,                                   !- Back Side Solar Reflectance at Normal Incidence
  0.88,                                   !- Visible Transmittance at Normal Incidence
  0.08,                                   !- Front Side Visible Reflectance at Normal Incidence
  0.08,                                   !- Back Side Visible Reflectance at Normal Incidence
  0,                                      !- Infrared Transmittance at Normal Incidence
  0.84,                                   !- Front Side Infrared Hemispherical Emissivity
  0.84,                                   !- Back Side Infrared Hemispherical Emissivity
  1,                                      !- Conductivity {W/m-K}
  1,                                      !- Dirt Correction Factor for Solar and Visible Transmittance
  No;                                     !- Solar Diffusing

OS:Material,
  {b84f194e-fb1b-4e94-a85a-6298d3853efc}, !- Handle
  AmianteCiment_20mm,                     !- Name
  Rough,                                  !- Roughness
  0.02,                                   !- Thickness {m}
  0.35,                                   !- Conductivity {W/m-K}
  1600,                                   !- Density {kg/m3}
  900,                                    !- Specific Heat {J/kg-K}
  0.9,                                    !- Thermal Absorptance
  0.7,                                    !- Solar Absorptance
  0.7;                                    !- Visible Absorptance

OS:Material,
  {ca82b7d1-836d-47d1-9a21-451fffca992d}, !- Handle
  Parpaing_10cm,                          !- Name
  MediumRough,                            !- Roughness
  0.1,                                    !- Thickness {m}
  0.72,                                   !- Conductivity {W/m-K}
  800,                                    !- Density {kg/m3}
  840,                                    !- Specific Heat {J/kg-K}
  0.9,                                    !- Thermal Absorptance
  0.7,                                    !- Solar Absorptance
  0.7;                                    !- Visible Absorptance

OS:Construction,
  {79b6e7b8-a858-4b1c-ab15-29341586d06a}, !- Handle
  Wall_osb,                               !- Name
  {d2906dfb-ef5f-4c22-92a0-c48eead7059c}, !- Surface Rendering Name
  {ebfd3e10-dcc2-418e-b3c5-4082885a31b0}, !- Layer 1
  {aec22d8d-1acf-49ca-8b60-e5b47efab0db}, !- Layer 2
  {b84f194e-fb1b-4e94-a85a-6298d3853efc}; !- Layer 3

OS:Construction,
  {82af9490-1133-4146-a61c-e98f935b2279}, !- Handle
  Floor_Internal,                         !- Name
  {4bf7f5c6-4e39-49bf-8076-acface491df4}, !- Surface Rendering Name
  {b2a3050e-151e-4490-80ab-1eabe9fb1aee}; !- Layer 1

OS:Construction,
  {e66f8e44-a373-4333-a127-6fb30697e1ce}, !- Handle
  Generic Double Pane,                    !- Name
  {63a7880b-0fe5-4598-bd9a-854ddeff2518}, !- Surface Rendering Name
  {7aa8ae3f-647e-4e76-9474-e18830f27e9e}, !- Layer 1
  {3cd1f6f0-4f10-4d5b-b211-63856c4414dc}, !- Layer 2
  {8b6c106d-8ab8-492b-bea5-cd5033c22a37}; !- Layer 3

OS:Construction,
  {9b0595cc-396f-410d-9f87-8ba863e3b265}, !- Handle
  Generic Interior Ceiling,               !- Name
  {a69284ab-1bc9-43f8-91fc-710717843d36}, !- Surface Rendering Name
  {17e8bedf-af4c-44c4-96ea-c7453fb90995}, !- Layer 1
  {56e611a0-7910-42d2-ab0b-c8e680aad9ff}, !- Layer 2