
OS:Version,
  {23a7abae-0e01-4ff1-ab67-0a444564c124}, !- Handle
  3.8.0;                                  !- Version Identifier

OS:Schedule:Constant,
  {19c09863-70ef-4d05-8a4e-d1f32e01a6ec}, !- Handle
  Always On,                              !- Name
  ,                                       !- Schedule Type Limits Name
  1;                                      !- Value

OS:Material,
  {8719872d-2015-4615-9196-939681cbd4a8}, !- Handle
  Generic Gypsum Board,                   !- Name
  MediumSmooth,                           !- Roughness
  0.0127,                                 !- Thickness {m}
  0.16,                                   !- Conductivity {W/m-K}
  800,                                    !- Density {kg/m3}
  1090,                                   !- Specific Heat {J/kg-K}
  0.9,                                    !- Thermal Absorptance
  0.5,                                    !- Solar Absorptance
  0.5;                                    !- Visible Absorptance

OS:Material,
  {8adfe0ac-7d48-4ec6-9c00-c62228548d99}, !- Handle
  Generic 50mm Insulation,                !- Name
  MediumRough,                            !- Roughness
  0.05,                                   !- Thickness {m}
  0.03,                                   !- Conductivity {W/m-K}
  43,                                     !- Density {kg/m3}
  1210,                                   !- Specific Heat {J/kg-K}
  0.9,                                    !- Thermal Absorptance
  0.7,                                    !- Solar Absorptance
  0.7;                                    !- Visible Absorptance

OS:Material,
  {4a81979c-6821-4132-bdb6-126c58ef3299}, !- Handle
  AmianteCiment_20mm,                     !- Name
  Rough,                                  !- Roughness
  0.02,                                   !- Thickness {m}
  0.35,                                   !- Conductivity {W/m-K}
  1600,                                   !- Density {kg/m3}
  900,                                    !- Specific Heat {J/kg-K}
  0.9,                                    !- Thermal Absorptance
  0.7,                                    !- Solar Absorptance
  0.7;                                    !- Visible Absorptance

OS:Material,
  {8ab550b9-661e-45ef-a401-37963ef72e23}, !- Handle
  Generic LW Concrete,                    !- Name
  MediumRough,                            !- Roughness
  0.1,                                    !- Thickness {m}
  0.53,                                   !- Conductivity {W/m-K}
  1280,                                   !- Density {kg/m3}
  840,                                    !- Specific Heat {J/kg-K}
  0.9,                                    !- Thermal Absorptance
  0.8,                                    !- Solar Absorptance
  0.8;                                    !- Visible Absorptance

OS:Material,
  {2d124d7a-74f7-407f-a658-d11cab9eaa13}, !- Handle
  Generic Brick,                          !- Name
  MediumRough,                            !- Roughness
  0.1,                                    !- Thickness {m}
  0.9,                                    !- Conductivity {W/m-K}
  1920,                                   !- Density {kg/m3}
  790,                                    !- Specific Heat {J/kg-K}
  0.9,                                    !- Thermal Absorptance
  0.65,                                   !- Solar Absorptance
  0.65;                                   !- Visible Absorptance

OS:Material,
  {0a17a931-cebb-44a6-9a22-466ea6bc9ca3}, !- Handle
  Generic 25mm Wood,                      !- Name
  MediumSmooth,                           !- Roughness
  0.0254,                                 !- Thickness {m}
  0.15,                                   !- Conductivity {W/m-K}
  608,                                    !- Density {kg/m3}
  1630,                                   !- Specific Heat {J/kg-K}
  0.9,                                    !- Thermal Absorptance
  0.5,                                    !- Solar Absorptance
  0.5;                                    !- Visible Absorptance

OS:WindowMaterial:Glazing,
  {8dd4ed63-e8fa-428a-b4cb-73dbc8f95818}, !- Handle
  Generic Low-e Glass,                    !- Name
  SpectralAverage,                        !- Optical Data Type
  ,                                       !- Window Glass Spectral Data Set Name
  0.006,                                  !- Thickness {m}
  0.45,                                   !- Solar Transmittance at Normal Incidence
  0.36,                                   !- Front Side Solar Reflectance at Normal Incidence
  0.36,                                   !- Back Side Solar Reflectance at Normal Incidence
  0.71,                                   !- Visible Transmittance at Normal Incidence
  0.21,                                   !- Front Side Visible Reflectance at Normal Incidence
  0.21,                                   !- Back Side Visible Reflectance at Normal Incidence
  0,                                      !- Infrared Transmittance at Normal Incidence
  0.84,                                   !- Front Side Infrared Hemispherical Emissivity
  0.047,                                  !- Back Side Infrared Hemispherical Emissivity
  1,                                      !- Conductivity {W/m-K}
  1,                                      !- Dirt Correction Factor for Solar and Visible Transmittance
  No;                                     !- Solar Diffusing

OS:Material,
  {999dc313-a046-4a42-b13b-b3d1fe9e049e}, !- Handle
  AirCavity_5cm,                          !- Name
  MediumRough,                            !- Roughness
  0.05,                                   !- Thickness {m}
  0.025,                                  !- Conductivity {W/m-K}
  1.2,                                    !- Density {kg/m3}
  1005,                                   !- Specific Heat {J/kg-K}
  0.9,                                    !- Thermal Absorptance
  0.7,                                    !- Solar Absorptance
  0.7;                                    !- Visible Absorptance

OS:Material,
  {83435dc5-52ef-4551-85c5-e05fdc455225}, !- Handle
  Generic Painted Metal,                  !- Name
  Smooth,                                 !- Roughness
  0.0015,                                 !- Thickness {m}
  45,                                     !- Conductivity {W/m-K}
  7690,                                   !- Density {kg/m3}
  410,                                    !- Specific Heat {J/kg-K}
  0.9,                                    !- Thermal Absorptance
  0.5,                                    !- Solar Absorptance
  0.5;                                    !- Visible Absorptance

OS:WindowMaterial:Gas,
  {538b6dc3-1f50-453e-b8da-04a659e255c5}, !- Handle
  Generic Window Air Gap,                 !- Name
  Air,                                    !- Gas Type
  0.0127;                                 !- Thickness {m}

OS:Material,
  {bbe29ecf-6ce4-4b1e-9b96-0b33e8f00605}, !- Handle
  Parpaing_10cm,                          !- Name
  MediumRough,                            !- Roughness
  0.1,                                    !- Thickness {m}
  0.72,                                   !- Conductivity {W/m-K}
  800,                                    !- Density {kg/m3}
  840,                                    !- Specific Heat {J/kg-K}
  0.9,                                    !- Thermal Absorptance
  0.7,                                    !- Solar Absorptance
  0.7;                                    !- Visible Absorptance

OS:WindowMaterial:Gas,
  {9d89b6a4-0771-435e-8e6a-3ec32fea862b}, !- Handle
  air_gap_16mm,                           !- Name
  Air,                                    !- Gas Type
  0.016;                                  !- Thickness {m}

OS:WindowMaterial:Glazing,
  {28da24b1-f37d-4f3f-b019-613cf809a186}, !- Handle
  clear_glass,                            !- Name
  SpectralAverage,                        !- Optical Data Type
  ,                                       !- Window Glass Spectral Data Set Name
  0.004,                                  !- Thickness {m}
  0.75,                                   !- Solar Transmittance at Normal Incidence
  0.075,                                  !- Front Side Solar Reflectance at Normal Incidence
  0.075,                                  !- Back Side Solar Reflectance at Normal Incidence
  0.8,                                    !- Visible Transmittance at Normal Incidence
  0.075,                                  !- Front Side Visible Reflectance at Normal Incidence
  0.075,                                  !- Back Side Visible Reflectance at Normal Incidence
  0,                                      !- Infrared Transmittance at Normal Incidence
  0.84,                                   !- Front Side Infrared Hemispherical Emissivity
  0.84,                                   !- Back Side Infrared Hemispherical Emissivity
  1,                                      !- Conductivity {W/m-K}
  1,                                      !- Dirt Correction Factor for Solar and Visible Transmittance
  No;                                     !- Solar Diffusing

OS:Material,
  {5803a532-ae89-442c-aa32-6e565fc499a2}, !- Handle
  OSB_20mm,                               !- Name
  MediumRough,                            !- Roughness
  0.02,                                   !- Thickness {m}
  0.13,                                   !- Conductivity {W/m-K}
  600,                                    !- Density {kg/m3}
  1600,                                   !- Specific Heat {J/kg-K}
  0.9,                                    !- Thermal Absorptance
  0.7,                                    !- Solar Absorptance
  0.7;                                    !- Visible Absorptance

OS:Material,
  {f13b67b1-2fff-4816-94b1-3759fbb31018}, !- Handle
  Generic HW Concrete,                    !- Name
  MediumRough,                            !- Roughness
  0.2,                                    !- Thickness {m}
  1.95,                                   !- Conductivity {W/m-K}
  2240,                                   !- Density {kg/m3}
  900,                                    !- Specific Heat {J/kg-K}
  0.9,                                    !- Thermal Absorptance
  0.8,                                    !- Solar Absorptance
  0.8;                                    !- Visible Absorptance

OS:Material,
  {1a0d7f6c-781d-446d-9516-a665741be2f7}, !- Handle
  Concrete_200mm,                         !- Name
  MediumRough,                            !- Roughness
  0.2,                                    !- Thickness {m}
  1.75,                                   !- Conductivity {W/m-K}
  2300,                                   !- Density {kg/m3}
  900,                                    !- Specific Heat {J/kg-K}
  0.9,                                    !- Thermal Absorptance
  0.7,                                    !- Solar Absorptance
  0.7;                                    !- Visible Absorptance

OS:WindowMaterial:Glazing,
  {a3dc23db-b07c-4777-b697-b0d2ea8ced95}, !- Handle
  Generic Clear Glass,                    !- Name
  SpectralAverage,                        !- Optical Data Type
  ,                                       !- Window Glass Spectral Data Set Name
  0.006,                                  !- Thickness {m}
  0.77,                                   !- Solar Transmittance at Normal Incidence
  0.07,                                   !- Front Side Solar Reflectance at Normal Incidence
  0.07,                                   !- Back Side Solar Reflectance at Normal Incidence
  0.88,                                   !- Visible Transmittance at Normal Incidence
  0.08,                                   !- Front Side Visible Reflectance at Normal Incidence
  0.08,                                   !- Back Side Visible Reflectance at Normal Incidence
  0,                                      !- Infrared Transmittance at Normal Incidence
  0.84,                                   !- Front Side Infrared Hemispherical Emissivity
  0.84,                                   !- Back Side Infrared Hemispherical Emissivity
  1,                                      !- Conductivity {W/m-K}
  1,                                      !- Dirt Correction Factor for Solar and Visible Transmittance
  No;                                     !- Solar Diffusing

OS:Material,
  {25f03ae0-3bec-43a4-bb59-5458b3d8c1d4}, !- Handle
  Generic Acoustic Tile,                  !- Name
  MediumSmooth,                           !- Roughness
  0.02,                                   !- Thickness {m}
  0.06,                                   !- Conductivity {W/m-K}
  368,                                    !- Density {kg/m3}
  590,                                    !- Specific Heat {J/kg-K}
  0.9,                                    !- Thermal Absorptance
  0.2,                                    !- Solar Absorptance
  0.2;                                    !- Visible Absorptance

OS:Material,
  {c4f0083f-45a2-4089-ae4d-0a0f14ad4759}, !- Handle
  GlassWool_Old,                          !- Name
  Rough,                                  !- Roughness
  0.1,                                    !- Thickness {m}
  0.05,                                   !- Conductivity {W/m-K}
  18,                                     !- Density {kg/m3}
  840,                                    !- Specific Heat {J/kg-K}
  0.9,                                    !- Thermal Absorptance
  0.7,                                    !- Solar Absorptance
  0.7;                                    !- Visible Absorptance

OS:Material,
  {9860abfc-dc40-48ec-9307-9133d17c14e0}, !- Handle
  Generic Roof Membrane,                  !- Name
  MediumRough,                            !- Roughness
  0.01,                                   !- Thickness {m}
  0.16,                                   !- Conductivity {W/m-K}
  1120,                                   !- Density {kg/m3}
  1460,                                   !- Specific Heat {J/kg-K}
  0.9,                                    !- Thermal Absorptance
  0.65,                                   !- Solar Absorptance
  0.65;                                   !- Visible Absorptance

OS:Material,
  {c87b5747-1e61-4dfa-b0b5-27fe8a31d15d}, !- Handle
  Generic 25mm Insulation,                !- Name
  MediumRough,                            !- Roughness
  0.025,                                  !- Thickness {m}
  0.03,                                   !- Conductivity {W/m-K}
  43,                                     !- Density {kg/m3}
  1210,                                   !- Specific Heat {J/kg-K}
  0.9,                                    !- Thermal Absorptance
  0.7,                                    !- Solar Absorptance
  0.7;                                    !- Visible Absorptance

OS:Material,
  {257e9ef5-867c-4e2b-8afb-c6b7f360d45f}, !- Handle
  Plaster_2cm,                            !- Name
  MediumRough,                            !- Roughness
  0.02,                                   !- Thickness {m}
  0.7,                                    !- Conductivity {W/m-K}
  900,                                    !- Density {kg/m3}
  1000,                                   !- Specific Heat {J/kg-K}
  0.9,                                    !- Thermal Absorptance
  0.7,                                    !- Solar Absorptance
  0.7;                                    !- Visible Absorptance

OS:Material,
  {b61ebf31-a501-438b-8fe8-adaf68b6afd5}, !- Handle
  Generic Ceiling Air Gap,                !- Name
  Smooth,                                 !- Roughness
  0.1,                                    !- Thickness {m}
  0.556,                                  !- Conductivity {W/m-K}
  1.28,                                   !- Density {kg/m3}
  1000,                                   !- Specific Heat {J/kg-K}
  0.9,                                    !- Thermal Absorptance
  0.7,                                    !- Solar Absorptance
  0.7;                                    !- Visible Absorptance

OS:WindowMaterial:Glazing,
  {9e7736d9-385e-451a-9340-e1d43e5e77ed}, !- Handle
  thick_glass_for_wall,                   !- Name
  SpectralAverage,                        !- Optical Data Type
  ,                                       !- Window Glass Spectral Data Set Name
  0.02,                                   !- Thickness {m}
  0.75,                                   !- Solar Transmittance at Normal Incidence
  0.075,                                  !- Front Side Solar Reflectance at Normal Incidence
  0.075,                                  !- Back Side Solar Reflectance at Normal Incidence
  0.8,                                    !- Visible Transmittance at Normal Incidence
  0.075,                                  !- Front Side Visible Reflectance at Normal Incidence
  0.075,                                  !- Back Side Visible Reflectance at Normal Incidence
  0,                                      !- Infrared Transmittance at Normal Incidence
  0.84,                                   !- Front Side Infrared Hemispherical Emissivity
  0.84,                                   !- Back Side Infrared Hemispherical Emissivity
  1,                                      !- Conductivity {W/m-K}
  1,                                      !- Dirt Correction Factor for Solar and Visible Transmittance
  No;                                     !- Solar Diffusing

OS:Material,
  {b57db2b0-b1ad-4236-91c6-5f3ccecf468c}, !- Handle
  Generic Wall Air Gap,                   !- Name
  Smooth,                                 !- Roughness
  0.1,                                    !- Thickness {m}
  0.667,                                  !- Conductivity {W/m-K}
  1.28,                                   !- Density {kg/m3}
  1000,                                   !- Specific Heat {J/kg-K}
  0.9,                                    !- Thermal Absorptance
  0.7,                                    !- Solar Absorptance
  0.7;                                    !- Visible Absorptance

OS:Construction,
  {bdcb5fb0-7801-4a5e-8e3a-edc033ecde2b}, !- Handle
  Generic Underground Wall,               !- Name
  {e7a4403b-c171-4f8a-996f-8ec147662281}, !- Surface Rendering Name
  {8adfe0ac-7d48-4ec6-9c00-c62228548d99}, !- Layer 1
  {f13b67b1-2fff-4816-94b1-3759fbb31018}, !- Layer 2
  {b57db2b0-b1ad-4236-91c6-5f3ccecf468c}, !- Layer 3
  {8719872d-2015-4615-9196-939681cbd4a8}; !- Layer 4

OS:Construction,
  {445733ef-fc07-4499-bc8a-ec0d4f0c8202}, !- Handle
  Generic Interior Ceiling,               !- Name
  {636cb581-831b-415d-803b-1973a216b2c9}, !- Surface Rendering Name
  {8ab550b9-661e-45ef-a401-37963ef72e23}, !- Layer 1
  {b61ebf31-a501-438b-8fe8-adaf68b6afd5}, !- Layer 2
  {25f03ae0-3bec-43a4-bb59-5458b3d8c1d4}; !- Layer 3

OS:Construction,
  {b0ed5d53-9875-4f0f-8fea-4ccb1092156e}, !- Handle
  Generic Double Pane,                    !- Name
  {68b322d6-47c4-467a-b734-625c2c9bc07b}, !- Surface Rendering Name
  {8dd4ed63-e8fa-428a-b4cb-73dbc8f95818}, !- Layer 1
  {538b6dc3-1f50-453e-b8da-04a659e255c5}, !- Layer 2
  {a3dc23db-b07c-4777-b697-b0d2ea8ced95}; !- Layer 3

OS:Construction,
  {66ff09f4-eb33-4f65-8bb9-77344c2d7eb4}, !- Handle
  Generic Interior Wall,                  !- Name
  {effe3a2d-bb02-48ea-b71b-7f2aa048cf41}, !- Surface Rendering Name
  {8719872d-2015-4615-9196-939681cbd4a8}, !- Layer 1
  {b57db2b0-b1ad-4236-91c6-5f3ccecf468c}, !- Layer 2
  {8719872d-2015-4615-9196-939681cbd4a8}; !- Layer 3

OS:Construction,
  {254e47da-c1ae-4ab4-92cc-1c9a0368a7bb}, !- Handle
  Generic Interior Floor,                 !- Name
  {fc540dcb-26da-4092-aba6-bc53529a0239}, !- Surface Rendering Name
  {25f03ae0-3bec-43a4-bb59-5458b3d8c1d4}, !- Layer 1
  {b61ebf31-a501-438b-8fe8-adaf68b6afd5}, !- Layer 2
  {8ab550b9-661e-45ef-a401-37963ef72e23}; !- Layer 3

OS:Construction,
  {31d7512b-c96d-4b05-a964-8167b6b9ef16}, !- Handle
  Wall_osb,                               !- Name
  {500760a7-0257-4bc2-9209-6b13ff16fb13}, !- Surface Rendering Name
  {5803a532-ae89-442c-aa32-6e565fc499a2}, !- Layer 1
  {c4f0083f-45a2-4089-ae4d-0a0f14ad4759}, !- Layer 2
  {4a81979c-6821-4132-bdb6-126c58ef3299}; !- Layer 3

OS:Construction,
  {1d77eda4-cd03-41ca-921b-c0d2bb75f9e2}, !- Handle
  Generic Exposed Floor,                  !- Name
  {a230dfab-69af-4e4b-8ae4-50429748e0c5}, !- Surface Rendering Name
  {83435dc5-52ef-4551-85c5-e05fdc455225}, !- Layer 1
  {b61ebf31-a501-438b-8fe8-adaf68b6afd5}, !- Layer 2
  {8adfe0ac-7d48-4ec6-9c00-c62228548d99}, !- Layer 3
  {8ab550b9-661e-45ef-a401-37963ef72e23}; !- Layer 4

OS:Construction,
  {c234e19f-97f1-47b5-8400-2038aa633538}, !- Handle
  paroi murale simple vitrage,            !- Name
  {444a6856-2419-4097-b5f5-a3548a9382ee}, !- Surface Rendering Name
  {9e7736d9-385e-451a-9340-e1d43e5e77ed}; !- Layer 1

OS:Construction,
  {c4519a37-7df8-4ef9-9b43-54c60df33c17}, !- Handle
  Generic Exterior Door,                  !- Name
  {04954e05-97f4-4167-b0cc-3e401fc294e9}, !- Surface Rendering Name
  {83435dc5-52ef-4551-85c5-e05fdc455225}, !- Layer 1
  {c87b5747-1e61-4dfa-b0b5-27fe8a31d15d}, !- Layer 2
  {83435dc5-52ef-4551-85c5-e05fdc455225}; !- Layer 3

OS:Construction,
  {bac68344-4efd-45dc-8ee1-c6d2c960fa67}, !- Handle
  Generic Interior Door,                  !- Name
  {d240aafc-7093-4084-8234-d4ce859a9b85}, !- Surface Rendering Name
  {0a17a931-cebb-44a6-9a22-466ea6bc9ca3}; !- Layer 1

OS:Construction,
  {c3f37fd2-0682-4cfb-a6cd-6bd281874517}, !- Handle
  Floor_Internal,                         !- Name
  {c6deb11c-7730-4b8a-b9ef-fd734f60b30b}, !- Surface Rendering Name
  {1a0d7f6c-781d-446d-9516-a665741be2f7}; !- Layer 1

OS:Construction,
  {34c8497a-f191-4afe-8cf5-405f50e5cca4}, !- Handle
  Fenetre_PVC_Double,                     !- Name
  {01b12b11-0010-4b86-ac3a-3842ad3a7be4}, !- Surface Rendering Name
  {28da24b1-f37d-4f3f-b019-613cf809a186}, !- Layer 1
  {9d89b6a4-0771-435e-8e6a-3ec32fea862b}, !- Layer 2
  {28da24b1-f37d-4f3f-b019-613cf809a186}; !- Layer 3

OS:Construction,
  {075b1e8f-c831-4d9d-acd9-5fbbe8e7418b}, !- Handle
  Generic Underground Roof,               !- Name
  {2fd15b1b-02bb-4a31-8d20-a4ca7a89b789}, !- Surface Rendering Name
  {8adfe0ac-7d48-4ec6-9c00-c62228548d99}, !- Layer 1
  {f13b67b1-2fff-4816-94b1-3759fbb31018}, !- Layer 2
  {b61ebf31-a501-438b-8fe8-adaf68b6afd5}, !- Layer 3
  {25f03ae0-3bec-43a4-bb59-5458b3d8c1d4}; !- Layer 4

OS:Construction,
  {a1480bf4-b3f7-4e04-a24c-c5065577ca90}, !- Handle
  wall_parpaing,                          !- Name
  {8ad17327-f451-4622-9111-7f8031a0dcb9}, !- Surface Rendering Name
  {257e9ef5-867c-4e2b-8afb-c6b7f360d45f}, !- Layer 1
  {bbe29ecf-6ce4-4b1e-9b96-0b33e8f00605}, !- Layer 2
  {999dc313-a046-4a42-b13b-b3d1fe9e049e}, !- Layer 3
  {257e9ef5-867c-4e2b-8afb-c6b7f360d45f}; !- Layer 4

OS:Construction,
  {ff0356f2-c5b0-424d-9707-3d6f0b9b39d6}, !- Handle
  Generic Exterior Wall,                  !- Name
  {da321228-aa8a-438d-9dcf-cde9a2952296}, !- Surface Rendering Name
  {2d124d7a-74f7-407f-a658-d11cab9eaa13}, !- Layer 1
  {8ab550b9-661e-45ef-a401-37963ef72e23}, !- Layer 2
  {8adfe0ac-7d48-4ec6-9c00-c62228548d99}, !- Layer 3
  {b57db2b0-b1ad-4236-91c6-5f3ccecf468c}, !- Layer 4
  {8719872d-2015-4615-9196-939681cbd4a8}; !- Layer 5

OS:Construction,
  {3a3e9952-e717-4180-bb7c-79693b70e94d}, !- Handle
  Generic Single Pane,                    !- Name
  {5ab13112-db6a-44e7-a810-e0fecbdaa96f}, !- Surface Rendering Name
  {a3dc23db-b07c-4777-b697-b0d2ea8ced95}; !- Layer 1

OS:Construction,
  {406f7537-c077-465a-bd25-2ced846f2195}, !- Handle
  Generic Roof,                           !- Name
  {47e2bf20-7dc4-4bba-81ea-d12f1fdaa8e1}, !- Surface Rendering Name
  {9860abfc-dc40-48ec-9307-9133d17c14e0}, !- Layer 1
  {8adfe0ac-7d48-4ec6-9c00-c62228548d99}, !- Layer 2
  {8ab550b9-661e-45ef-a401-37963ef72e23}, !- Layer 3
  {b61ebf31-a501-438b-8fe8-adaf68b6afd5}, !- Layer 4
  {25f03ae0-3bec-43a4-bb59-5458b3d8c1d4}; !- Layer 5

OS:Construction:AirBoundary,
  {09e79bcf-6a75-4a63-b81b-45a4fec36e85}, !- Handle
  Generic Air Boundary,                   !- Name
  None,                                   !- Air Exchange Method
  0;                                      !- Simple Mixing Air Changes per Hour {1/hr}

OS:Construction,
  {29857b9a-c250-4d90-b138-5a97e8d26456}, !- Handle
  Generic Ground Slab,                    !- Name
  {3142dc83-368b-4a32-a768-b83bcdddc94b}, !- Surface Rendering Name
  {8adfe0ac-7d48-4ec6-9c00-c62228548d99}, !- Layer 1
  {f13b67b1-2fff-4816-94b1-3759fbb31018}; !- Layer 2

OS:ThermalZone,
  {d0e5743f-436e-40cc-b54d-d9c16307c317}, !- Handle
  SS,                                     !- Name
  1,                                      !- Multiplier
  3,                                      !- Ceiling Height {m}
  1221,                                   !- Volume {m3}
  ,                                       !- Floor Area {m2}
  ,                                       !- Zone Inside Convection Algorithm
  ,                                       !- Zone Outside Convection Algorithm
  ,                                       !- Zone Conditioning Equipment List Name
  {a792fd40-2d42-4657-b1b6-b98ed68b054d}, !- Zone Air Inlet Port List
  {bab13909-9674-4515-8818-a49f8657e2ec}, !- Zone Air Exhaust Port List
  {884ba56c-ebba-4561-add1-16898b678d7f}, !- Zone Air Node Name
  {05ebc4d6-6dc8-434d-817b-a3f813cc9892}, !- Zone Return Air Port List
  ,                                       !- Primary Daylighting Control Name
  ,                                       !- Fraction of Zone Controlled by Primary Daylighting Control
  ,                                       !- Secondary Daylighting Control Name
  ,                                       !- Fraction of Zone Controlled by Secondary Daylighting Control
  ,                                       !- Illuminance Map Name
  {ec456dfb-7c21-4e2e-a0c4-6f7a678a25e0}, !- Group Rendering Name
  ,                                       !- Thermostat Name
  No;                                     !- Use Ideal Air Loads

OS:Node,
  {e2baebca-7641-4bf4-bf23-0b8b1a58b13b}, !- Handle
  Node 1,                                 !- Name
  {884ba56c-ebba-4561-add1-16898b678d7f}, !- Inlet Port
  ;                                       !- Outlet Port

OS:Connection,
  {884ba56c-ebba-4561-add1-16898b678d7f}, !- Handle
  {d0e5743f-436e-40cc-b54d-d9c16307c317}, !- Source Object
  11,                                     !- Outlet Port
  {e2baebca-7641-4bf4-bf23-0b8b1a58b13b}, !- Target Object
  2;                                      !- Inlet Port

OS:PortList,
  {a792fd40-2d42-4657-b1b6-b98ed68b054d}, !- Handle
  {d0e5743f-436e-40cc-b54d-d9c16307c317}; !- HVAC Component

OS:PortList,
  {bab13909-9674-4515-8818-a49f8657e2ec}, !- Handle
  {d0e5743f-436e-40cc-b54d-d9c16307c317}; !- HVAC Component

OS:PortList,
  {05ebc4d6-6dc8-434d-817b-a3f813cc9892}, !- Handle
  {d0e5743f-436e-40cc-b54d-d9c16307c317}; !- HVAC Component

OS:Sizing:Zone,
  {9afc3368-2a65-483f-b2c4-8c96b4ea2db3}, !- Handle
  {d0e5743f-436e-40cc-b54d-d9c16307c317}, !- Zone or ZoneList Name
  SupplyAirTemperature,                   !- Zone Cooling Design Supply Air Temperature Input Method
  14,                                     !- Zone Cooling Design Supply Air Temperature {C}
  11.11,                                  !- Zone Cooling Design Supply Air Temperature Difference {deltaC}
  SupplyAirTemperature,                   !- Zone Heating Design Supply Air Temperature Input Method
  40,                                     !- Zone Heating Design Supply Air Temperature {C}
  11.11,                                  !- Zone Heating Design Supply Air Temperature Difference {deltaC}
  0.0085,                                 !- Zone Cooling Design Supply Air Humidity Ratio {kg-H2O/kg-air}
  0.008,                                  !- Zone Heating Design Supply Air Humidity Ratio {kg-H2O/kg-air}
  ,                                       !- Zone Heating Sizing Factor
  ,                                       !- Zone Cooling Sizing Factor
  DesignDay,                              !- Cooling Design Air Flow Method
  ,                                       !- Cooling Design Air Flow Rate {m3/s}
  ,                                       !- Cooling Minimum Air Flow per Zone Floor Area {m3/s-m2}
  ,                                       !- Cooling Minimum Air Flow {m3/s}
  ,                                       !- Cooling Minimum Air Flow Fraction
  DesignDay,                              !- Heating Design Air Flow Method
  ,                                       !- Heating Design Air Flow Rate {m3/s}
  ,                                       !- Heating Maximum Air Flow per Zone Floor Area {m3/s-m2}
  ,                                       !- Heating Maximum Air Flow {m3/s}
  ,                                       !- Heating Maximum Air Flow Fraction
  No,                                     !- Account for Dedicated Outdoor Air System
  NeutralSupplyAir,                       !- Dedicated Outdoor Air System Control Strategy
  autosize,                               !- Dedicated Outdoor Air Low Setpoint Temperature for Design {C}
  autosize,                               !- Dedicated Outdoor Air High Setpoint Temperature for Design {C}
  Sensible Load Only No Latent Load,      !- Zone Load Sizing Method
  HumidityRatioDifference,                !- Zone Latent Cooling Design Supply Air Humidity Ratio Input Method
  ,                                       !- Zone Dehumidification Design Supply Air Humidity Ratio {kgWater/kgDryAir}
  0.005,                                  !- Zone Cooling Design Supply Air Humidity Ratio Difference {kgWater/kgDryAir}
  HumidityRatioDifference,                !- Zone Latent Heating Design Supply Air Humidity Ratio Input Method
  ,                                       !- Zone Humidification Design Supply Air Humidity Ratio {kgWater/kgDryAir}