
OS:Version,
  {7dd15ee2-6441-4ba1-aaba-ef9038c38900}, !- Handle
  3.8.0;                                  !- Version Identifier

OS:Schedule:Constant,
  {51d2db0d-afd8-4bea-be11-a553ec9a0e2d}, !- Handle
  cooling schedule,                       !- Name
  {72e0af10-b168-43df-a64e-edf5de74ea84}, !- Schedule Type Limits Name
  50;                                     !- Value

OS:Schedule:Ruleset,
  {5593368f-b897-455b-ab3f-1a777df5ed79}, !- Handle
  heating schedule,                       !- Name
  {72e0af10-b168-43df-a64e-edf5de74ea84}, !- Schedule Type Limits Name
  {c08227c3-0187-4a4e-88bb-b73ca46d4131}, !- Default Day Schedule Name
  {5b2b02b0-44bc-4b68-9b74-2f01018f19ea}, !- Summer Design Day Schedule Name
  {24abc71f-405f-4710-ad06-513ac55174d8}, !- Winter Design Day Schedule Name
  {f2b718d0-bb98-4fa0-beca-f275879f4bb7}, !- Holiday Schedule Name
  {b6a7a3eb-6734-4765-aadd-38fa2ad64eae}, !- Custom Day 1 Schedule Name
  {7e6fff65-082e-45df-8b0f-bdcbfcd41fef}; !- Custom Day 2 Schedule Name

OS:Schedule:Day,
  {c08227c3-0187-4a4e-88bb-b73ca46d4131}, !- Handle
  Schedule Day 1,                         !- Name
  {72e0af10-b168-43df-a64e-edf5de74ea84}, !- Schedule Type Limits Name
  ,                                       !- Interpolate to Timestep
  24,                                     !- Hour 1
  0,                                      !- Minute 1
  0;                                      !- Value Until Time 1

OS:Schedule:Day,
  {37f1041b-b010-4e2b-9f23-b4ebba1449ef}, !- Handle
  off day (weekend),                      !- Name
  ,                                       !- Schedule Type Limits Name
  No,                                     !- Interpolate to Timestep
  24,                                     !- Hour 1
  0,                                      !- Minute 1
  5;                                      !- Value Until Time 1

OS:Schedule:Rule,
  {42ca130b-51cc-4bef-ad4d-4cbe7bf856bc}, !- Handle
  heating schedule_Week 1,                !- Name
  {5593368f-b897-455b-ab3f-1a777df5ed79}, !- Schedule Ruleset Name
  1,                                      !- Rule Order
  {f37daffd-4826-4b43-8b42-6eae7a7789da}, !- Day Schedule Name
  Yes,                                    !- Apply Sunday
  ,                                       !- Apply Monday
  ,                                       !- Apply Tuesday
  ,                                       !- Apply Wednesday
  ,                                       !- Apply Thursday
  ,                                       !- Apply Friday
  Yes,                                    !- Apply Saturday
  DateRange,                              !- Date Specification Type
  1,                                      !- Start Month
  1,                                      !- Start Day
  12,                                     !- End Month
  31;                                     !- End Day

OS:Schedule:Day,
  {f37daffd-4826-4b43-8b42-6eae7a7789da}, !- Handle
  off day (weekend) 1,                    !- Name
  {72e0af10-b168-43df-a64e-edf5de74ea84}, !- Schedule Type Limits Name
  No,                                     !- Interpolate to Timestep
  24,                                     !- Hour 1
  0,                                      !- Minute 1
  5;                                      !- Value Until Time 1

OS:Schedule:Day,
  {cbe134a8-9815-4fc6-ac33-6b5a52a45485}, !- Handle
  heating day,                            !- Name
  ,                                       !- Schedule Type Limits Name
  No,                                     !- Interpolate to Timestep
  7,                                      !- Hour 1
  0,                                      !- Minute 1
  5,                                      !- Value Until Time 1
  17,                                     !- Hour 2
  0,                                      !- Minute 2
  20,                                     !- Value Until Time 2
  24,                                     !- Hour 3
  0,                                      !- Minute 3
  5;                                      !- Value Until Time 3

OS:Schedule:Rule,
  {c9ab7854-8d97-414d-aba2-dd3c5cfef5a4}, !- Handle
  heating schedule_Week 2,                !- Name
  {5593368f-b897-455b-ab3f-1a777df5ed79}, !- Schedule Ruleset Name
  0,                                      !- Rule Order
  {9c74d9ca-e6b2-448e-ab15-6bb2d82fb8b7}, !- Day Schedule Name
  ,                                       !- Apply Sunday
  Yes,                                    !- Apply Monday
  Yes,                                    !- Apply Tuesday
  Yes,                                    !- Apply Wednesday
  Yes,                                    !- Apply Thursday
  Yes,                                    !- Apply Friday
  ,                                       !- Apply Saturday
  DateRange,                              !- Date Specification Type
  1,                                      !- Start Month
  1,                                      !- Start Day
  12,                                     !- End Month
  31;                                     !- End Day

OS:Schedule:Day,
  {9c74d9ca-e6b2-448e-ab15-6bb2d82fb8b7}, !- Handle
  heating day 1,                          !- Name
  {72e0af10-b168-43df-a64e-edf5de74ea84}, !- Schedule Type Limits Name
  No,                                     !- Interpolate to Timestep
  7,                                      !- Hour 1
  0,                                      !- Minute 1
  5,                                      !- Value Until Time 1
  17,                                     !- Hour 2
  0,                                      !- Minute 2
  20,                                     !- Value Until Time 2
  24,                                     !- Hour 3
  0,                                      !- Minute 3
  5;                                      !- Value Until Time 3

OS:Schedule:Day,
  {f2b718d0-bb98-4fa0-beca-f275879f4bb7}, !- Handle
  heating day 2,                          !- Name
  {72e0af10-b168-43df-a64e-edf5de74ea84}, !- Schedule Type Limits Name
  No,                                     !- Interpolate to Timestep
  7,                                      !- Hour 1
  0,                                      !- Minute 1
  5,                                      !- Value Until Time 1
  17,                                     !- Hour 2
  0,                                      !- Minute 2
  20,                                     !- Value Until Time 2
  24,                                     !- Hour 3
  0,                                      !- Minute 3
  5;                                      !- Value Until Time 3

OS:Schedule:Day,
  {5b2b02b0-44bc-4b68-9b74-2f01018f19ea}, !- Handle
  heating day 3,                          !- Name
  {72e0af10-b168-43df-a64e-edf5de74ea84}, !- Schedule Type Limits Name
  No,                                     !- Interpolate to Timestep
  7,                                      !- Hour 1
  0,                                      !- Minute 1
  5,                                      !- Value Until Time 1
  17,                                     !- Hour 2
  0,                                      !- Minute 2
  20,                                     !- Value Until Time 2
  24,                                     !- Hour 3
  0,                                      !- Minute 3
  5;                                      !- Value Until Time 3

OS:Schedule:Day,
  {24abc71f-405f-4710-ad06-513ac55174d8}, !- Handle
  heating day 4,                          !- Name
  {72e0af10-b168-43df-a64e-edf5de74ea84}, !- Schedule Type Limits Name
  No,                                     !- Interpolate to Timestep
  7,                                      !- Hour 1
  0,                                      !- Minute 1
  5,                                      !- Value Until Time 1
  17,                                     !- Hour 2
  0,                                      !- Minute 2
  20,                                     !- Value Until Time 2
  24,                                     !- Hour 3
  0,                                      !- Minute 3
  5;                                      !- Value Until Time 3

OS:Schedule:Day,
  {b6a7a3eb-6734-4765-aadd-38fa2ad64eae}, !- Handle
  heating day 5,                          !- Name
  {72e0af10-b168-43df-a64e-edf5de74ea84}, !- Schedule Type Limits Name
  No,                                     !- Interpolate to Timestep
  7,                                      !- Hour 1
  0,                                      !- Minute 1
  5,                                      !- Value Until Time 1
  17,                                     !- Hour 2
  0,                                      !- Minute 2
  20,                                     !- Value Until Time 2
  24,                                     !- Hour 3
  0,                                      !- Minute 3
  5;                                      !- Value Until Time 3

OS:Schedule:Day,
  {7e6fff65-082e-45df-8b0f-bdcbfcd41fef}, !- Handle
  heating day 6,                          !- Name
  {72e0af10-b168-43df-a64e-edf5de74ea84}, !- Schedule Type Limits Name
  No,                                     !- Interpolate to Timestep
  7,                                      !- Hour 1
  0,                                      !- Minute 1
  5,                                      !- Value Until Time 1
  17,                                     !- Hour 2
  0,                                      !- Minute 2
  20,                                     !- Value Until Time 2
  24,                                     !- Hour 3
  0,                                      !- Minute 3
  5;                                      !- Value Until Time 3

OS:Schedule:Week,
  {c02a6b0d-60f6-4b24-8ba8-62034508918a}, !- Handle
  heating schedule_Week 1,                !- Name
  ,                                       !- Schedule Rendering Name
  {37f1041b-b010-4e2b-9f23-b4ebba1449ef}, !- Sunday Schedule:Day Name
  {cbe134a8-9815-4fc6-ac33-6b5a52a45485}, !- Monday Schedule:Day Name
  {cbe134a8-9815-4fc6-ac33-6b5a52a45485}, !- Tuesday Schedule:Day Name
  {cbe134a8-9815-4fc6-ac33-6b5a52a45485}, !- Wednesday Schedule:Day Name
  {cbe134a8-9815-4fc6-ac33-6b5a52a45485}, !- Thursday Schedule:Day Name
  {cbe134a8-9815-4fc6-ac33-6b5a52a45485}, !- Friday Schedule:Day Name
  {37f1041b-b010-4e2b-9f23-b4ebba1449ef}, !- Saturday Schedule:Day Name
  {cbe134a8-9815-4fc6-ac33-6b5a52a45485}, !- Holiday Schedule:Day Name
  {cbe134a8-9815-4fc6-ac33-6b5a52a45485}, !- SummerDesignDay Schedule:Day Name
  {cbe134a8-9815-4fc6-ac33-6b5a52a45485}, !- WinterDesignDay Schedule:Day Name
  {cbe134a8-9815-4fc6-ac33-6b5a52a45485}, !- CustomDay1 Schedule:Day Name
  {cbe134a8-9815-4fc6-ac33-6b5a52a45485}; !- CustomDay2 Schedule:Day Name

OS:Schedule:Constant,
  {6ea987bc-fbe4-4b1e-b519-e14bea24a1de}, !- Handle
  Always On,                              !- Name
  ,                                       !- Schedule Type Limits Name
  1;                                      !- Value

OS:Material,
  {9153fd67-28e8-4ac5-bd6e-dd82f5e78f91}, !- Handle
  GlassWool_Old,                          !- Name
  Rough,                                  !- Roughness
  0.1,                                    !- Thickness {m}
  0.05,                                   !- Conductivity {W/m-K}
  18,                                     !- Density {kg/m3}
  840,                                    !- Specific Heat {J/kg-K}
  0.9,                                    !- Thermal Absorptance
  0.7,                                    !- Solar Absorptance
  0.7;                                    !- Visible Absorptance

OS:Material,
  {005601a6-f85c-438b-a34f-703754c170b2}, !- Handle
  Generic Roof Membrane,                  !- Name
  MediumRough,                            !- Roughness
  0.01,                                   !- Thickness {m}
  0.16,                                   !- Conductivity {W/m-K}
  1120,                                   !- Density {kg/m3}
  1460,                                   !- Specific Heat {J/kg-K}
  0.9,                                    !- Thermal Absorptance
  0.65,                                   !- Solar Absorptance
  0.65;                                   !- Visible Absorptance

OS:Material,
  {5113535b-387d-48a0-825a-5f3a0f420358}, !- Handle
  Generic HW Concrete,                    !- Name
  MediumRough,                            !- Roughness
  0.2,                                    !- Thickness {m}
  1.95,                                   !- Conductivity {W/m-K}
  2240,                                   !- Density {kg/m3}
  900,                                    !- Specific Heat {J/kg-K}
  0.9,                                    !- Thermal Absorptance
  0.8,                                    !- Solar Absorptance
  0.8;                                    !- Visible Absorptance

OS:Material,
  {bcd900a1-af50-4091-a701-3d958f596ec5}, !- Handle
  Plaster_2cm,                            !- Name
  MediumRough,                            !- Roughness
  0.02,                                   !- Thickness {m}
  0.7,                                    !- Conductivity {W/m-K}
  900,                                    !- Density {kg/m3}
  1000,                                   !- Specific Heat {J/kg-K}
  0.9,                                    !- Thermal Absorptance
  0.7,                                    !- Solar Absorptance
  0.7;                                    !- Visible Absorptance

OS:Material,
  {c61928e2-93f0-4605-88a0-37d318da03f4}, !- Handle
  Concrete_200mm,                         !- Name
  MediumRough,                            !- Roughness
  0.2,                                    !- Thickness {m}
  1.75,                                   !- Conductivity {W/m-K}
  2300,                                   !- Density {kg/m3}
  900,                                    !- Specific Heat {J/kg-K}
  0.9,                                    !- Thermal Absorptance
  0.7,                                    !- Solar Absorptance
  0.7;                                    !- Visible Absorptance

OS:Material,
  {e4f230b7-dd7d-44ac-a78e-bdd97ad58a82}, !- Handle
  Generic LW Concrete,                    !- Name
  MediumRough,                            !- Roughness
  0.1,                                    !- Thickness {m}
  0.53,                                   !- Conductivity {W/m-K}
  1280,                                   !- Density {kg/m3}
  840,                                    !- Specific Heat {J/kg-K}
  0.9,                                    !- Thermal Absorptance
  0.8,                                    !- Solar Absorptance
  0.8;                                    !- Visible Absorptance

OS:Material,
  {37ad9ff2-f15d-490d-ae00-8ea360d5dd40}, !- Handle
  Generic 25mm Insulation,                !- Name
  MediumRough,                            !- Roughness
  0.025,                                  !- Thickness {m}
  0.03,                                   !- Conductivity {W/m-K}
  43,                                     !- Density {kg/m3}
  1210,                                   !- Specific Heat {J/kg-K}
  0.9,                                    !- Thermal Absorptance
  0.7,                                    !- Solar Absorptance
  0.7;                                    !- Visible Absorptance

OS:WindowMaterial:Gas,
  {4ea56019-4206-4366-b883-39e32343ab3b}, !- Handle
  Generic Window Air Gap,                 !- Name
  Air,                                    !- Gas Type
  0.0127;                                 !- Thickness {m}

OS:Material,
  {c9ead6c3-5c1f-4f2e-a3ac-9da9b9cb79d0}, !- Handle
  Generic 25mm Wood,                      !- Name
  MediumSmooth,                           !- Roughness
  0.0254,                                 !- Thickness {m}
  0.15,                                   !- Conductivity {W/m-K}
  608,                                    !- Density {kg/m3}
  1630,                                   !- Specific Heat {J/kg-K}
  0.9,                                    !- Thermal Absorptance
  0.5,                                    !- Solar Absorptance
  0.5;                                    !- Visible Absorptance

OS:Material,
  {beaceee9-d000-4201-9143-d54a4b0b2727}, !- Handle
  Generic Brick,                          !- Name
  MediumRough,                            !- Roughness
  0.1,                                    !- Thickness {m}
  0.9,                                    !- Conductivity {W/m-K}
  1920,                                   !- Density {kg/m3}
  790,                                    !- Specific Heat {J/kg-K}
  0.9,                                    !- Thermal Absorptance
  0.65,                                   !- Solar Absorptance
  0.65;                                   !- Visible Absorptance

OS:Material,
  {c834bef9-0ed9-4a72-b412-87225fe58dad}, !- Handle
  Generic Painted Metal,                  !- Name
  Smooth,                                 !- Roughness
  0.0015,                                 !- Thickness {m}
  45,                                     !- Conductivity {W/m-K}
  7690,                                   !- Density {kg/m3}
  410,                                    !- Specific Heat {J/kg-K}
  0.9,                                    !- Thermal Absorptance
  0.5,                                    !- Solar Absorptance
  0.5;                                    !- Visible Absorptance

OS:Material,
  {d9a6c1b2-0d66-4160-9737-cc7bc0856e5f}, !- Handle
  Generic Gypsum Board,                   !- Name
  MediumSmooth,                           !- Roughness
  0.0127,                                 !- Thickness {m}
  0.16,                                   !- Conductivity {W/m-K}
  800,                                    !- Density {kg/m3}
  1090,                                   !- Specific Heat {J/kg-K}
  0.9,                                    !- Thermal Absorptance
  0.5,                                    !- Solar Absorptance
  0.5;                                    !- Visible Absorptance

OS:WindowMaterial:Glazing,
  {0d22ff8b-1397-4c8f-9c49-911dfc31d5f5}, !- Handle
  Generic Low-e Glass,                    !- Name
  SpectralAverage,                        !- Optical Data Type
  ,                                       !- Window Glass Spectral Data Set Name
  0.006,                                  !- Thickness {m}
  0.45,                                   !- Solar Transmittance at Normal Incidence
  0.36,                                   !- Front Side Solar Reflectance at Normal Incidence
  0.36,                                   !- Back Side Solar Reflectance at Normal Incidence
  0.71,                                   !- Visible Transmittance at Normal Incidence
  0.21,                                   !- Front Side Visible Reflectance at Normal Incidence
  0.21,                                   !- Back Side Visible Reflectance at Normal Incidence
  0,                                      !- Infrared Transmittance at Normal Incidence
  0.84,                                   !- Front Side Infrared Hemispherical Emissivity
  0.047,                                  !- Back Side Infrared Hemispherical Emissivity
  1,                                      !- Conductivity {W/m-K}
  1,                                      !- Dirt Correction Factor for Solar and Visible Transmittance
  No;                                     !- Solar Diffusing

OS:Material,
  {3af3b389-ebea-4811-8cbb-0326d8981980}, !- Handle
  Generic Acoustic Tile,                  !- Name
  MediumSmooth,                           !- Roughness
  0.02,                                   !- Thickness {m}
  0.06,                                   !- Conductivity {W/m-K}
  368,                                    !- Density {kg/m3}
  590,                                    !- Specific Heat {J/kg-K}
  0.9,                                    !- Thermal Absorptance
  0.2,                                    !- Solar Absorptance
  0.2;                                    !- Visible Absorptance

OS:Material,
  {c3fa954d-3e25-474c-9337-dc381f7440f1}, !- Handle
  AmianteCiment_20mm,                     !- Name
  Rough,                                  !- Roughness
  0.02,                                   !- Thickness {m}
  0.35,                                   !- Conductivity {W/m-K}
  1600,                                   !- Density {kg/m3}
  900,                                    !- Specific Heat {J/kg-K}
  0.9,                                    !- Thermal Absorptance
  0.7,                                    !- Solar Absorptance
  0.7;                                    !- Visible Absorptance

OS:Material,
  {9b16e39c-ae38-4c27-a8cc-818df76d79b8}, !- Handle
  AirCavity_5cm,                          !- Name
  MediumRough,                            !- Roughness
  0.05,                                   !- Thickness {m}
  0.025,                                  !- Conductivity {W/m-K}
  1.2,                                    !- Density {kg/m3}
  1005,                                   !- Specific Heat {J/kg-K}
  0.9,                                    !- Thermal Absorptance
  0.7,                                    !- Solar Absorptance
  0.7;                                    !- Visible Absorptance

OS:Material,
  {6a284de5-809f-4660-8610-d9f274d71234}, !- Handle
  OSB_20mm,                               !- Name
  MediumRough,                            !- Roughness
  0.02,                                   !- Thickness {m}
  0.13,                                   !- Conductivity {W/m-K}
  600,                                    !- Density {kg/m3}
  1600,                                   !- Specific Heat {J/kg-K}
  0.9,                                    !- Thermal Absorptance
  0.7,                                    !- Solar Absorptance
  0.7;                                    !- Visible Absorptance

OS:Material,
  {d1a22127-266d-4100-b313-83308ab870fa}, !- Handle
  Parpaing_10cm,                          !- Name
  MediumRough,                            !- Roughness
  0.1,                                    !- Thickness {m}
  0.72,                                   !- Conductivity {W/m-K}
  800,                                    !- Density {kg/m3}
  840,                                    !- Specific Heat {J/kg-K}
  0.9,                                    !- Thermal Absorptance
  0.7,                                    !- Solar Absorptance
  0.7;                                    !- Visible Absorptance

OS:Material,
  {63235e85-566a-428d-9600-3efd44e0e545}, !- Handle
  Generic Wall Air Gap,                   !- Name
  Smooth,                                 !- Roughness
  0.1,                                    !- Thickness {m}
  0.667,                                  !- Conductivity {W/m-K}
  1.28,                                   !- Density {kg/m3}
  1000,                                   !- Specific Heat {J/kg-K}
  0.9,                                    !- Thermal Absorptance
  0.7,                                    !- Solar Absorptance
  0.7;                                    !- Visible Absorptance

OS:WindowMaterial:Glazing,
  {00c09609-0fb6-43fc-93af-b70d7700d687}, !- Handle
  thick_glass_for_wall,                   !- Name
  SpectralAverage,                        !- Optical Data Type
  ,                                       !- Window Glass Spectral Data Set Name
  0.02,                                   !- Thickness {m}
  0.75,                                   !- Solar Transmittance at Normal Incidence
  0.075,                                  !- Front Side Solar Reflectance at Normal Incidence
  0.075,                                  !- Back Side Solar Reflectance at Normal Incidence
  0.8,                                    !- Visible Transmittance at Normal Incidence
  0.075,                                  !- Front Side Visible Reflectance at Normal Incidence
  0.075,                                  !- Back Side Visible Reflectance at Normal Incidence
  0,                                      !- Infrared Transmittance at Normal Incidence
  0.84,                                   !- Front Side Infrared Hemispherical Emissivity
  0.84,                                   !- Back Side Infrared Hemispherical Emissivity
  1,                                      !- Conductivity {W/m-K}
  1,                                      !- Dirt Correction Factor for Solar and Visible Transmittance
  No;                                     !- Solar Diffusing

OS:WindowMaterial:Glazing,
  {692bebcd-a5a0-412e-8981-24244f964668}, !- Handle
  clear_glass,                            !- Name
  SpectralAverage,                        !- Optical Data Type
  ,                                       !- Window Glass Spectral Data Set Name
  0.004,                                  !- Thickness {m}
  0.75,                                   !- Solar Transmittance at Normal Incidence
  0.075,                                  !- Front Side Solar Reflectance at Normal Incidence
  0.075,                                  !- Back Side Solar Reflectance at Normal Incidence
  0.8,                                    !- Visible Transmittance at Normal Incidence
  0.075,                                  !- Front Side Visible Reflectance at Normal Incidence
  0.075,                                  !- Back Side Visible Reflectance at Normal Incidence
  0,                                      !- Infrared Transmittance at Normal Incidence
  0.84,                                   !- Front Side Infrared Hemispherical Emissivity
  0.84,                                   !- Back Side Infrared Hemispherical Emissivity
  1,                                      !- Conductivity {W/m-K}
  1,                                      !- Dirt Correction Factor for Solar and Visible Transmittance
  No;                                     !- Solar Diffusing

OS:Material,
  {fe4d9c53-01eb-4a47-95ca-084d3a8044c2}, !- Handle
  Generic 50mm Insulation,                !- Name
  MediumRough,                            !- Roughness
  0.05,                                   !- Thickness {m}
  0.03,                                   !- Conductivity {W/m-K}
  43,                                     !- Density {kg/m3}
  1210,                                   !- Specific Heat {J/kg-K}
  0.9,                                    !- Thermal Absorptance
  0.7,                                    !- Solar Absorptance
  0.7;                                    !- Visible Absorptance

OS:WindowMaterial:Gas,
  {8d5adc0a-0455-4b98-ae72-76b17b1ce161}, !- Handle
  air_gap_16mm,                           !- Name
  Air,                                    !- Gas Type
  0.016;                                  !- Thickness {m}

OS:WindowMaterial:Glazing,
  {ab560fc7-fd7e-4451-870f-7b420eaebe9f}, !- Handle
  Generic Clear Glass,                    !- Name
  SpectralAverage,                        !- Optical Data Type
  ,                                       !- Window Glass Spectral Data Set Name
  0.006,                                  !- Thickness {m}
  0.77,                                   !- Solar Transmittance at Normal Incidence
  0.07,                                   !- Front Side Solar Reflectance at Normal Incidence
  0.07,                                   !- Back Side Solar Reflectance at Normal Incidence
  0.88,                                   !- Visible Transmittance at Normal Incidence
  0.08,                                   !- Front Side Visible Reflectance at Normal Incidence
  0.08,                                   !- Back Side Visible Reflectance at Normal Incidence
  0,                                      !- Infrared Transmittance at Normal Incidence
  0.84,                                   !- Front Side Infrared Hemispherical Emissivity
  0.84,                                   !- Back Side Infrared Hemispherical Emissivity
  1,                                      !- Conductivity {W/m-K}
  1,                                      !- Dirt Correction Factor for Solar and Visible Transmittance
  No;                                     !- Solar Diffusing

OS:Material,
  {4b038f27-8613-4009-81f5-a4423d038930}, !- Handle
  Generic Ceiling Air Gap,                !- Name
  Smooth,                                 !- Roughness
  0.1,                                    !- Thickness {m}
  0.556,                                  !- Conductivity {W/m-K}
  1.28,                                   !- Density {kg/m3}
  1000,                                   !- Specific Heat {J/kg-K}
  0.9,                                    !- Thermal Absorptance
  0.7,                                    !- Solar Absorptance
  0.7;                                    !- Visible Absorptance

OS:Construction,
  {b0274959-763c-4322-ba11-35be0f29618c}, !- Handle
  Generic Exterior Door,                  !- Name
  {6d7c0a99-c2da-45c6-8069-fa7c0fe2a652}, !- Surface Rendering Name
  {c834bef9-0ed9-4a72-b412-87225fe58dad}, !- Layer 1
  {37ad9ff2-f15d-490d-ae00-8ea360d5dd40}, !- Layer 2
  {c834bef9-0ed9-4a72-b412-87225fe58dad}; !- Layer 3

OS:Construction,
  {a4f6a652-453e-4903-acec-a589e0d4051c}, !- Handle
  Generic Interior Wall,                  !- Name
  {703a22e0-8db8-46fc-a612-d7f904ecc308}, !- Surface Rendering Name
  {d9a6c1b2-0d66-4160-9737-cc7bc0856e5f}, !- Layer 1
  {63235e85-566a-428d-9600-3efd44e0e545}, !- Layer 2
  {d9a6c1b2-0d66-4160-9737-cc7bc0856e5f}; !- Layer 3

OS:Construction,
  {c94efc9e-d8b9-4460-9e7d-6466b1807d27}, !- Handle
  Generic Interior Ceiling,               !- Name
  {8d3f7bb2-be99-45b1-b991-8be9bdd58c15}, !- Surface Rendering Name
  {e4f230b7-dd7d-44ac-a78e-bdd97ad58a82}, !- Layer 1
  {4b038f27-8613-4009-81f5-a4423d038930}, !- Layer 2
  {3af3b389-ebea-4811-8cbb-0326d8981980}; !- Layer 3

OS:Construction:AirBoundary,
  {4effca68-d3c3-4b52-b73a-01c5e77d9f20}, !- Handle
  Generic Air Boundary,                   !- Name