
OS:Version,
  {2e1ecef3-30dd-4ff3-b916-7b8ad657a69d}, !- Handle
  3.8.0;                                  !- Version Identifier

OS:Schedule:Constant,
  {5f055ec8-0010-44cd-b5a2-b92ad4a709a6}, !- Handle
  cooling schedule,                       !- Name
  {1cfb5d66-5616-4ac4-889b-1d2104f455e6}, !- Schedule Type Limits Name
  50;                                     !- Value

OS:Schedule:Ruleset,
  {0cb9e276-60f1-4a44-a689-856ff97da83c}, !- Handle
  heating schedule,                       !- Name
  {1cfb5d66-5616-4ac4-889b-1d2104f455e6}, !- Schedule Type Limits Name
  {e5fc781b-d1f4-4b9b-a4d7-4d1c4f1ca347}, !- Default Day Schedule Name
  {9d8342d2-72ee-49d3-93f5-68e03857ec78}, !- Summer Design Day Schedule Name
  {6df5646a-c881-4464-a8a8-f1cc86faa165}, !- Winter Design Day Schedule Name
  {f3e2f9f9-a1de-4105-ac5b-8435e4f5cb41}, !- Holiday Schedule Name
  {f1bcaee9-eefa-424d-b3de-ac98ceee46b1}, !- Custom Day 1 Schedule Name
  {9d0065aa-c8c7-4c03-9a91-8c5794e50525}; !- Custom Day 2 Schedule Name

OS:Schedule:Day,
  {e5fc781b-d1f4-4b9b-a4d7-4d1c4f1ca347}, !- Handle
  Schedule Day 1,                         !- Name
  {1cfb5d66-5616-4ac4-889b-1d2104f455e6}, !- Schedule Type Limits Name
  ,                                       !- Interpolate to Timestep
  24,                                     !- Hour 1
  0,                                      !- Minute 1
  0;                                      !- Value Until Time 1

OS:Schedule:Day,
  {0ea83c89-549f-4c21-826d-a48d97787d76}, !- Handle
  off day (weekend),                      !- Name
  ,                                       !- Schedule Type Limits Name
  No,                                     !- Interpolate to Timestep
  24,                                     !- Hour 1
  0,                                      !- Minute 1
  5;                                      !- Value Until Time 1

OS:Schedule:Rule,
  {80da127e-5e18-4152-8def-da2d6b9b27ea}, !- Handle
  heating schedule_Week 1,                !- Name
  {0cb9e276-60f1-4a44-a689-856ff97da83c}, !- Schedule Ruleset Name
  1,                                      !- Rule Order
  {10fca291-a43b-4135-aaac-e000eaea6f28}, !- Day Schedule Name
  Yes,                                    !- Apply Sunday
  ,                                       !- Apply Monday
  ,                                       !- Apply Tuesday
  ,                                       !- Apply Wednesday
  ,                                       !- Apply Thursday
  ,                                       !- Apply Friday
  Yes,                                    !- Apply Saturday
  DateRange,                              !- Date Specification Type
  1,                                      !- Start Month
  1,                                      !- Start Day
  12,                                     !- End Month
  31;                                     !- End Day

OS:Schedule:Day,
  {10fca291-a43b-4135-aaac-e000eaea6f28}, !- Handle
  off day (weekend) 1,                    !- Name
  {1cfb5d66-5616-4ac4-889b-1d2104f455e6}, !- Schedule Type Limits Name
  No,                                     !- Interpolate to Timestep
  24,                                     !- Hour 1
  0,                                      !- Minute 1
  5;                                      !- Value Until Time 1

OS:Schedule:Day,
  {9ae224de-5b1a-45e0-8413-b93d69bb14c0}, !- Handle
  heating day,                            !- Name
  ,                                       !- Schedule Type Limits Name
  No,                                     !- Interpolate to Timestep
  7,                                      !- Hour 1
  0,                                      !- Minute 1
  5,                                      !- Value Until Time 1
  17,                                     !- Hour 2
  0,                                      !- Minute 2
  20,                                     !- Value Until Time 2
  24,                                     !- Hour 3
  0,                                      !- Minute 3
  5;                                      !- Value Until Time 3

OS:Schedule:Rule,
  {7e22d2ce-38ac-48e6-803b-c5a9928ddb2c}, !- Handle
  heating schedule_Week 2,                !- Name
  {0cb9e276-60f1-4a44-a689-856ff97da83c}, !- Schedule Ruleset Name
  0,                                      !- Rule Order
  {c43a3577-88a7-437a-83bb-ae9d233d514c}, !- Day Schedule Name
  ,                                       !- Apply Sunday
  Yes,                                    !- Apply Monday
  Yes,                                    !- Apply Tuesday
  Yes,                                    !- Apply Wednesday
  Yes,                                    !- Apply Thursday
  Yes,                                    !- Apply Friday
  ,                                       !- Apply Saturday
  DateRange,                              !- Date Specification Type
  1,                                      !- Start Month
  1,                                      !- Start Day
  12,                                     !- End Month
  31;                                     !- End Day

OS:Schedule:Day,
  {c43a3577-88a7-437a-83bb-ae9d233d514c}, !- Handle
  heating day 1,                          !- Name
  {1cfb5d66-5616-4ac4-889b-1d2104f455e6}, !- Schedule Type Limits Name
  No,                                     !- Interpolate to Timestep
  7,                                      !- Hour 1
  0,                                      !- Minute 1
  5,                                      !- Value Until Time 1
  17,                                     !- Hour 2
  0,                                      !- Minute 2
  20,                                     !- Value Until Time 2
  24,                                     !- Hour 3
  0,                                      !- Minute 3
  5;                                      !- Value Until Time 3

OS:Schedule:Day,
  {f3e2f9f9-a1de-4105-ac5b-8435e4f5cb41}, !- Handle
  heating day 2,                          !- Name
  {1cfb5d66-5616-4ac4-889b-1d2104f455e6}, !- Schedule Type Limits Name
  No,                                     !- Interpolate to Timestep
  7,                                      !- Hour 1
  0,                                      !- Minute 1
  5,                                      !- Value Until Time 1
  17,                                     !- Hour 2
  0,                                      !- Minute 2
  20,                                     !- Value Until Time 2
  24,                                     !- Hour 3
  0,                                      !- Minute 3
  5;                                      !- Value Until Time 3

OS:Schedule:Day,
  {9d8342d2-72ee-49d3-93f5-68e03857ec78}, !- Handle
  heating day 3,                          !- Name
  {1cfb5d66-5616-4ac4-889b-1d2104f455e6}, !- Schedule Type Limits Name
  No,                                     !- Interpolate to Timestep
  7,                                      !- Hour 1
  0,                                      !- Minute 1
  5,                                      !- Value Until Time 1
  17,                                     !- Hour 2
  0,                                      !- Minute 2
  20,                                     !- Value Until Time 2
  24,                                     !- Hour 3
  0,                                      !- Minute 3
  5;                                      !- Value Until Time 3

OS:Schedule:Day,
  {6df5646a-c881-4464-a8a8-f1cc86faa165}, !- Handle
  heating day 4,                          !- Name
  {1cfb5d66-5616-4ac4-889b-1d2104f455e6}, !- Schedule Type Limits Name
  No,                                     !- Interpolate to Timestep
  7,                                      !- Hour 1
  0,                                      !- Minute 1
  5,                                      !- Value Until Time 1
  17,                                     !- Hour 2
  0,                                      !- Minute 2
  20,                                     !- Value Until Time 2
  24,                                     !- Hour 3
  0,                                      !- Minute 3
  5;                                      !- Value Until Time 3

OS:Schedule:Day,
  {f1bcaee9-eefa-424d-b3de-ac98ceee46b1}, !- Handle
  heating day 5,                          !- Name
  {1cfb5d66-5616-4ac4-889b-1d2104f455e6}, !- Schedule Type Limits Name
  No,                                     !- Interpolate to Timestep
  7,                                      !- Hour 1
  0,                                      !- Minute 1
  5,                                      !- Value Until Time 1
  17,                                     !- Hour 2
  0,                                      !- Minute 2
  20,                                     !- Value Until Time 2
  24,                                     !- Hour 3
  0,                                      !- Minute 3
  5;                                      !- Value Until Time 3

OS:Schedule:Day,
  {9d0065aa-c8c7-4c03-9a91-8c5794e50525}, !- Handle
  heating day 6,                          !- Name
  {1cfb5d66-5616-4ac4-889b-1d2104f455e6}, !- Schedule Type Limits Name
  No,                                     !- Interpolate to Timestep
  7,                                      !- Hour 1
  0,                                      !- Minute 1
  5,                                      !- Value Until Time 1
  17,                                     !- Hour 2
  0,                                      !- Minute 2
  20,                                     !- Value Until Time 2
  24,                                     !- Hour 3
  0,                                      !- Minute 3
  5;                                      !- Value Until Time 3

OS:Schedule:Week,
  {b70eeee7-9b71-45ad-90fa-4a31906df826}, !- Handle
  heating schedule_Week 1,                !- Name
  ,                                       !- Schedule Rendering Name
  {0ea83c89-549f-4c21-826d-a48d97787d76}, !- Sunday Schedule:Day Name
  {9ae224de-5b1a-45e0-8413-b93d69bb14c0}, !- Monday Schedule:Day Name
  {9ae224de-5b1a-45e0-8413-b93d69bb14c0}, !- Tuesday Schedule:Day Name
  {9ae224de-5b1a-45e0-8413-b93d69bb14c0}, !- Wednesday Schedule:Day Name
  {9ae224de-5b1a-45e0-8413-b93d69bb14c0}, !- Thursday Schedule:Day Name
  {9ae224de-5b1a-45e0-8413-b93d69bb14c0}, !- Friday Schedule:Day Name
  {0ea83c89-549f-4c21-826d-a48d97787d76}, !- Saturday Schedule:Day Name
  {9ae224de-5b1a-45e0-8413-b93d69bb14c0}, !- Holiday Schedule:Day Name
  {9ae224de-5b1a-45e0-8413-b93d69bb14c0}, !- SummerDesignDay Schedule:Day Name
  {9ae224de-5b1a-45e0-8413-b93d69bb14c0}, !- WinterDesignDay Schedule:Day Name
  {9ae224de-5b1a-45e0-8413-b93d69bb14c0}, !- CustomDay1 Schedule:Day Name
  {9ae224de-5b1a-45e0-8413-b93d69bb14c0}; !- CustomDay2 Schedule:Day Name

OS:Schedule:Constant,
  {6f3ee874-7219-4930-b0d7-7708032c27fb}, !- Handle
  Always On,                              !- Name
  ,                                       !- Schedule Type Limits Name
  1;                                      !- Value

OS:Material,
  {172ba5cb-5a60-4adb-bb52-def92d42ac6d}, !- Handle
  GlassWool_Old,                          !- Name
  Rough,                                  !- Roughness
  0.1,                                    !- Thickness {m}
  0.05,                                   !- Conductivity {W/m-K}
  18,                                     !- Density {kg/m3}
  840,                                    !- Specific Heat {J/kg-K}
  0.9,                                    !- Thermal Absorptance
  0.7,                                    !- Solar Absorptance
  0.7;                                    !- Visible Absorptance

OS:Material,
  {0c74a4ac-f7fc-4bc5-a959-d0b2356bb16d}, !- Handle
  Generic Roof Membrane,                  !- Name
  MediumRough,                            !- Roughness
  0.01,                                   !- Thickness {m}
  0.16,                                   !- Conductivity {W/m-K}
  1120,                                   !- Density {kg/m3}
  1460,                                   !- Specific Heat {J/kg-K}
  0.9,                                    !- Thermal Absorptance
  0.65,                                   !- Solar Absorptance
  0.65;                                   !- Visible Absorptance

OS:Material,
  {39a063d7-13ea-4a09-9c03-bbf64db2cb44}, !- Handle
  Generic HW Concrete,                    !- Name
  MediumRough,                            !- Roughness
  0.2,                                    !- Thickness {m}
  1.95,                                   !- Conductivity {W/m-K}
  2240,                                   !- Density {kg/m3}
  900,                                    !- Specific Heat {J/kg-K}
  0.9,                                    !- Thermal Absorptance
  0.8,                                    !- Solar Absorptance
  0.8;                                    !- Visible Absorptance

OS:Material,
  {e3cd361a-70c0-4836-8fcf-ae4f7764a623}, !- Handle
  Plaster_2cm,                            !- Name
  MediumRough,                            !- Roughness
  0.02,                                   !- Thickness {m}
  0.7,                                    !- Conductivity {W/m-K}
  900,                                    !- Density {kg/m3}
  1000,                                   !- Specific Heat {J/kg-K}
  0.9,                                    !- Thermal Absorptance
  0.7,                                    !- Solar Absorptance
  0.7;                                    !- Visible Absorptance

OS:Material,
  {57f3c5bc-36ea-40a2-bf9c-0507b8f5ba79}, !- Handle
  Concrete_200mm,                         !- Name
  MediumRough,                            !- Roughness
  0.2,                                    !- Thickness {m}
  1.75,                                   !- Conductivity {W/m-K}
  2300,                                   !- Density {kg/m3}
  900,                                    !- Specific Heat {J/kg-K}
  0.9,                                    !- Thermal Absorptance
  0.7,                                    !- Solar Absorptance
  0.7;                                    !- Visible Absorptance

OS:Material,
  {e7fffe01-8649-4f0d-b393-413fff18dba8}, !- Handle
  Generic LW Concrete,                    !- Name
  MediumRough,                            !- Roughness
  0.1,                                    !- Thickness {m}
  0.53,                                   !- Conductivity {W/m-K}
  1280,                                   !- Density {kg/m3}
  840,                                    !- Specific Heat {J/kg-K}
  0.9,                                    !- Thermal Absorptance
  0.8,                                    !- Solar Absorptance
  0.8;                                    !- Visible Absorptance

OS:Material,
  {1cbcb3f6-8d14-415a-9eec-1bff5177c9d2}, !- Handle
  Generic 25mm Insulation,                !- Name
  MediumRough,                            !- Roughness
  0.025,                                  !- Thickness {m}
  0.03,                                   !- Conductivity {W/m-K}
  43,                                     !- Density {kg/m3}
  1210,                                   !- Specific Heat {J/kg-K}
  0.9,                                    !- Thermal Absorptance
  0.7,                                    !- Solar Absorptance
  0.7;                                    !- Visible Absorptance

OS:WindowMaterial:Gas,
  {22cff777-cf37-4597-8ac8-cd2e4f7bdaff}, !- Handle
  Generic Window Air Gap,                 !- Name
  Air,                                    !- Gas Type
  0.0127;                                 !- Thickness {m}

OS:Material,
  {ec7f38aa-0940-4049-a877-25c326395942}, !- Handle
  Generic 25mm Wood,                      !- Name
  MediumSmooth,                           !- Roughness
  0.0254,                                 !- Thickness {m}
  0.15,                                   !- Conductivity {W/m-K}
  608,                                    !- Density {kg/m3}
  1630,                                   !- Specific Heat {J/kg-K}
  0.9,                                    !- Thermal Absorptance
  0.5,                                    !- Solar Absorptance
  0.5;                                    !- Visible Absorptance

OS:Material,
  {28153dfd-6fdf-4792-9573-d3d398e28608}, !- Handle
  Generic Brick,                          !- Name
  MediumRough,                            !- Roughness
  0.1,                                    !- Thickness {m}
  0.9,                                    !- Conductivity {W/m-K}
  1920,                                   !- Density {kg/m3}
  790,                                    !- Specific Heat {J/kg-K}
  0.9,                                    !- Thermal Absorptance
  0.65,                                   !- Solar Absorptance
  0.65;                                   !- Visible Absorptance

OS:Material,
  {fab9bff6-c656-4014-a9df-f109681283ed}, !- Handle
  Generic Painted Metal,                  !- Name
  Smooth,                                 !- Roughness
  0.0015,                                 !- Thickness {m}
  45,                                     !- Conductivity {W/m-K}
  7690,                                   !- Density {kg/m3}
  410,                                    !- Specific Heat {J/kg-K}
  0.9,                                    !- Thermal Absorptance
  0.5,                                    !- Solar Absorptance
  0.5;                                    !- Visible Absorptance

OS:Material,
  {ebd1b46c-df17-49b5-9968-533b82c0092a}, !- Handle
  Generic Gypsum Board,                   !- Name
  MediumSmooth,                           !- Roughness
  0.0127,                                 !- Thickness {m}
  0.16,                                   !- Conductivity {W/m-K}
  800,                                    !- Density {kg/m3}
  1090,                                   !- Specific Heat {J/kg-K}
  0.9,                                    !- Thermal Absorptance
  0.5,                                    !- Solar Absorptance
  0.5;                                    !- Visible Absorptance

OS:WindowMaterial:Glazing,
  {1425e2cf-3b38-4299-bfa1-524ed17622f1}, !- Handle
  Generic Low-e Glass,                    !- Name
  SpectralAverage,                        !- Optical Data Type
  ,                                       !- Window Glass Spectral Data Set Name
  0.006,                                  !- Thickness {m}
  0.45,                                   !- Solar Transmittance at Normal Incidence
  0.36,                                   !- Front Side Solar Reflectance at Normal Incidence
  0.36,                                   !- Back Side Solar Reflectance at Normal Incidence
  0.71,                                   !- Visible Transmittance at Normal Incidence
  0.21,                                   !- Front Side Visible Reflectance at Normal Incidence
  0.21,                                   !- Back Side Visible Reflectance at Normal Incidence
  0,                                      !- Infrared Transmittance at Normal Incidence
  0.84,                                   !- Front Side Infrared Hemispherical Emissivity
  0.047,                                  !- Back Side Infrared Hemispherical Emissivity
  1,                                      !- Conductivity {W/m-K}
  1,                                      !- Dirt Correction Factor for Solar and Visible Transmittance
  No;                                     !- Solar Diffusing

OS:Material,
  {a95a8246-777a-4c75-95cf-aeeff358a7cc}, !- Handle
  Generic Acoustic Tile,                  !- Name
  MediumSmooth,                           !- Roughness
  0.02,                                   !- Thickness {m}
  0.06,                                   !- Conductivity {W/m-K}
  368,                                    !- Density {kg/m3}
  590,                                    !- Specific Heat {J/kg-K}
  0.9,                                    !- Thermal Absorptance
  0.2,                                    !- Solar Absorptance
  0.2;                                    !- Visible Absorptance

OS:Material,
  {468c7250-5e1f-4f70-8f9d-28a09b3e13ec}, !- Handle
  AmianteCiment_20mm,                     !- Name
  Rough,                                  !- Roughness
  0.02,                                   !- Thickness {m}
  0.35,                                   !- Conductivity {W/m-K}
  1600,                                   !- Density {kg/m3}
  900,                                    !- Specific Heat {J/kg-K}
  0.9,                                    !- Thermal Absorptance
  0.7,                                    !- Solar Absorptance
  0.7;                                    !- Visible Absorptance

OS:Material,
  {d563140d-0f03-410a-bfe6-9a7558aa3bed}, !- Handle
  AirCavity_5cm,                          !- Name
  MediumRough,                            !- Roughness
  0.05,                                   !- Thickness {m}
  0.025,                                  !- Conductivity {W/m-K}
  1.2,                                    !- Density {kg/m3}
  1005,                                   !- Specific Heat {J/kg-K}
  0.9,                                    !- Thermal Absorptance
  0.7,                                    !- Solar Absorptance
  0.7;                                    !- Visible Absorptance

OS:Material,
  {7d116e2f-0c43-42e8-b955-32351f72e056}, !- Handle
  OSB_20mm,                               !- Name
  MediumRough,                            !- Roughness
  0.02,                                   !- Thickness {m}
  0.13,                                   !- Conductivity {W/m-K}
  600,                                    !- Density {kg/m3}
  1600,                                   !- Specific Heat {J/kg-K}
  0.9,                                    !- Thermal Absorptance
  0.7,                                    !- Solar Absorptance
  0.7;                                    !- Visible Absorptance

OS:Material,
  {1ad7be98-90d9-4b6b-a556-ce21441fe30a}, !- Handle
  Parpaing_10cm,                          !- Name
  MediumRough,                            !- Roughness
  0.1,                                    !- Thickness {m}
  0.72,                                   !- Conductivity {W/m-K}
  800,                                    !- Density {kg/m3}
  840,                                    !- Specific Heat {J/kg-K}
  0.9,                                    !- Thermal Absorptance
  0.7,                                    !- Solar Absorptance
  0.7;                                    !- Visible Absorptance

OS:Material,
  {af9d8367-553a-49bf-9c4b-22c2c054b804}, !- Handle
  Generic Wall Air Gap,                   !- Name
  Smooth,                                 !- Roughness
  0.1,                                    !- Thickness {m}
  0.667,                                  !- Conductivity {W/m-K}
  1.28,                                   !- Density {kg/m3}
  1000,                                   !- Specific Heat {J/kg-K}
  0.9,                                    !- Thermal Absorptance
  0.7,                                    !- Solar Absorptance
  0.7;                                    !- Visible Absorptance

OS:WindowMaterial:Glazing,
  {ee131848-e951-420d-b4ed-d31163506b2e}, !- Handle
  thick_glass_for_wall,                   !- Name
  SpectralAverage,                        !- Optical Data Type
  ,                                       !- Window Glass Spectral Data Set Name
  0.02,                                   !- Thickness {m}
  0.75,                                   !- Solar Transmittance at Normal Incidence
  0.075,                                  !- Front Side Solar Reflectance at Normal Incidence
  0.075,                                  !- Back Side Solar Reflectance at Normal Incidence
  0.8,                                    !- Visible Transmittance at Normal Incidence
  0.075,                                  !- Front Side Visible Reflectance at Normal Incidence
  0.075,                                  !- Back Side Visible Reflectance at Normal Incidence
  0,                                      !- Infrared Transmittance at Normal Incidence
  0.84,                                   !- Front Side Infrared Hemispherical Emissivity
  0.84,                                   !- Back Side Infrared Hemispherical Emissivity
  1,                                      !- Conductivity {W/m-K}
  1,                                      !- Dirt Correction Factor for Solar and Visible Transmittance
  No;                                     !- Solar Diffusing

OS:WindowMaterial:Glazing,
  {cd7b6381-b6a1-4bc5-abe2-9057db80fa88}, !- Handle
  clear_glass,                            !- Name
  SpectralAverage,                        !- Optical Data Type
  ,                                       !- Window Glass Spectral Data Set Name
  0.004,                                  !- Thickness {m}
  0.75,                                   !- Solar Transmittance at Normal Incidence
  0.075,                                  !- Front Side Solar Reflectance at Normal Incidence
  0.075,                                  !- Back Side Solar Reflectance at Normal Incidence
  0.8,                                    !- Visible Transmittance at Normal Incidence
  0.075,                                  !- Front Side Visible Reflectance at Normal Incidence
  0.075,                                  !- Back Side Visible Reflectance at Normal Incidence
  0,                                      !- Infrared Transmittance at Normal Incidence
  0.84,                                   !- Front Side Infrared Hemispherical Emissivity
  0.84,                                   !- Back Side Infrared Hemispherical Emissivity
  1,                                      !- Conductivity {W/m-K}
  1,                                      !- Dirt Correction Factor for Solar and Visible Transmittance
  No;                                     !- Solar Diffusing

OS:Material,
  {09cdc08e-ff05-4b70-9fde-640ca954eada}, !- Handle
  Generic 50mm Insulation,                !- Name
  MediumRough,                            !- Roughness
  0.05,                                   !- Thickness {m}
  0.03,                                   !- Conductivity {W/m-K}
  43,                                     !- Density {kg/m3}
  1210,                                   !- Specific Heat {J/kg-K}
  0.9,                                    !- Thermal Absorptance
  0.7,                                    !- Solar Absorptance
  0.7;                                    !- Visible Absorptance

OS:WindowMaterial:Gas,
  {0fe85025-6efb-4fd8-8b2a-fcd3516c6f74}, !- Handle
  air_gap_16mm,                           !- Name
  Air,                                    !- Gas Type
  0.016;                                  !- Thickness {m}

OS:WindowMaterial:Glazing,
  {2c140799-493b-4a1b-8b1c-b1b715e87fbe}, !- Handle
  Generic Clear Glass,                    !- Name
  SpectralAverage,                        !- Optical Data Type
  ,                                       !- Window Glass Spectral Data Set Name
  0.006,                                  !- Thickness {m}
  0.77,                                   !- Solar Transmittance at Normal Incidence
  0.07,                                   !- Front Side Solar Reflectance at Normal Incidence
  0.07,                                   !- Back Side Solar Reflectance at Normal Incidence
  0.88,                                   !- Visible Transmittance at Normal Incidence
  0.08,                                   !- Front Side Visible Reflectance at Normal Incidence
  0.08,                                   !- Back Side Visible Reflectance at Normal Incidence
  0,                                      !- Infrared Transmittance at Normal Incidence
  0.84,                                   !- Front Side Infrared Hemispherical Emissivity
  0.84,                                   !- Back Side Infrared Hemispherical Emissivity
  1,                                      !- Conductivity {W/m-K}
  1,                                      !- Dirt Correction Factor for Solar and Visible Transmittance
  No;                                     !- Solar Diffusing

OS:Material,
  {1921314b-2da4-46f6-8702-43182b0d7124}, !- Handle
  Generic Ceiling Air Gap,                !- Name
  Smooth,                                 !- Roughness
  0.1,                                    !- Thickness {m}
  0.556,                                  !- Conductivity {W/m-K}
  1.28,                                   !- Density {kg/m3}
  1000,                                   !- Specific Heat {J/kg-K}
  0.9,                                    !- Thermal Absorptance
  0.7,                                    !- Solar Absorptance
  0.7;                                    !- Visible Absorptance

OS:Construction,
  {d8828d23-38ef-466a-a58f-1dd61dfdccfd}, !- Handle
  Generic Exterior Door,                  !- Name
  {4b1753db-68f6-4cdb-b83f-2e0608db01e2}, !- Surface Rendering Name
  {fab9bff6-c656-4014-a9df-f109681283ed}, !- Layer 1
  {1cbcb3f6-8d14-415a-9eec-1bff5177c9d2}, !- Layer 2
  {fab9bff6-c656-4014-a9df-f109681283ed}; !- Layer 3

OS:Construction,
  {e8f6a351-3951-4cf8-a6ca-4fcd98dee481}, !- Handle
  Generic Interior Wall,                  !- Name
  {101eecc7-c514-4563-a625-325abdad407f}, !- Surface Rendering Name
  {ebd1b46c-df17-49b5-9968-533b82c0092a}, !- Layer 1
  {af9d8367-553a-49bf-9c4b-22c2c054b804}, !- Layer 2
  {ebd1b46c-df17-49b5-9968-533b82c0092a}; !- Layer 3

OS:Construction,
  {077b8ee5-c21e-4e5c-8767-0c2db568d705}, !- Handle
  Generic Interior Ceiling,               !- Name
  {21f4dd6b-cd45-43d7-8cb1-feaf59c3f6cb}, !- Surface Rendering Name
  {e7fffe01-8649-4f0d-b393-413fff18dba8}, !- Layer 1
  {1921314b-2da4-46f6-8702-43182b0d7124}, !- Layer 2
  {a95a8246-777a-4c75-95cf-aeeff358a7cc}; !- Layer 3

OS:Construction:AirBoundary,
  {8ad49871-16b1-4f1f-a4d8-f897dbab03fc}, !- Handle
  Generic Air Boundary,                   !- Name